
*** ChampSim Multicore Out-of-Order Simulator ***

Warmup Instructions: 1000000
Simulation Instructions: 1000000000
Number of CPUs: 1
Off-chip DRAM Size: 4 GiB Channels: 1 Width: 64-bit Data Rate: 3200 MT/s

VirtualMemory physical capacity: 8588881920 num_ppages: 2096895
VirtualMemory page size: 4096 log2_page_size: 12

CPU 0 runs tracer/pin/traces/spec2k17/605.mcf_s-665B.champsimtrace.xz
Basic BTB sets: 1024 ways: 8 indirect buffer size: 4096 RAS size: 64
cpu0_L1D next line prefetcher
cpu0_L2C IP-based stride prefetcher
WARNING: The extended signature CACHE::prefetch_line(ip, base_addr, pf_addr, fill_this_level, prefetch_metadata) is deprecated.
WARNING: Use CACHE::prefetch_line(pf_addr, fill_this_level, prefetch_metadata) instead.

Warmup complete CPU 0 instructions: 1000004 cycles: 304139 (Simulation time: 0 hr 0 min 5 sec) 

Heartbeat CPU 0 instructions: 10000004 cycles: 29013618 heartbeat IPC: 0.344666 cumulative IPC: 0.313485 (Simulation time: 0 hr 1 min 46 sec) 
Heartbeat CPU 0 instructions: 20000000 cycles: 60610489 heartbeat IPC: 0.316487 cumulative IPC: 0.315058 (Simulation time: 0 hr 3 min 36 sec) 
Heartbeat CPU 0 instructions: 30000000 cycles: 91180667 heartbeat IPC: 0.327116 cumulative IPC: 0.319114 (Simulation time: 0 hr 5 min 24 sec) 
Heartbeat CPU 0 instructions: 40000002 cycles: 122302928 heartbeat IPC: 0.321313 cumulative IPC: 0.319675 (Simulation time: 0 hr 7 min 15 sec) 
Heartbeat CPU 0 instructions: 50000004 cycles: 152348998 heartbeat IPC: 0.332822 cumulative IPC: 0.322273 (Simulation time: 0 hr 9 min 1 sec) 
Heartbeat CPU 0 instructions: 60000001 cycles: 183187689 heartbeat IPC: 0.324268 cumulative IPC: 0.32261 (Simulation time: 0 hr 10 min 52 sec) 
Heartbeat CPU 0 instructions: 70000000 cycles: 213809791 heartbeat IPC: 0.326561 cumulative IPC: 0.323176 (Simulation time: 0 hr 12 min 39 sec) 
Heartbeat CPU 0 instructions: 80000001 cycles: 244719815 heartbeat IPC: 0.32352 cumulative IPC: 0.32322 (Simulation time: 0 hr 14 min 28 sec) 
Heartbeat CPU 0 instructions: 90000000 cycles: 276592307 heartbeat IPC: 0.31375 cumulative IPC: 0.322127 (Simulation time: 0 hr 16 min 16 sec) 
Heartbeat CPU 0 instructions: 100000001 cycles: 305457927 heartbeat IPC: 0.346433 cumulative IPC: 0.324427 (Simulation time: 0 hr 17 min 53 sec) 
Heartbeat CPU 0 instructions: 110000000 cycles: 334591489 heartbeat IPC: 0.343247 cumulative IPC: 0.326067 (Simulation time: 0 hr 19 min 30 sec) 
Heartbeat CPU 0 instructions: 120000000 cycles: 363039585 heartbeat IPC: 0.351517 cumulative IPC: 0.328063 (Simulation time: 0 hr 21 min 7 sec) 
Heartbeat CPU 0 instructions: 130000000 cycles: 391280118 heartbeat IPC: 0.354101 cumulative IPC: 0.329944 (Simulation time: 0 hr 22 min 44 sec) 
Heartbeat CPU 0 instructions: 140000000 cycles: 420438019 heartbeat IPC: 0.34296 cumulative IPC: 0.330847 (Simulation time: 0 hr 24 min 20 sec) 
Heartbeat CPU 0 instructions: 150000000 cycles: 449258246 heartbeat IPC: 0.346979 cumulative IPC: 0.331882 (Simulation time: 0 hr 25 min 56 sec) 
Heartbeat CPU 0 instructions: 160000000 cycles: 477521987 heartbeat IPC: 0.35381 cumulative IPC: 0.333181 (Simulation time: 0 hr 27 min 30 sec) 
Heartbeat CPU 0 instructions: 170000001 cycles: 506767300 heartbeat IPC: 0.341935 cumulative IPC: 0.333687 (Simulation time: 0 hr 29 min 6 sec) 
Heartbeat CPU 0 instructions: 180000002 cycles: 534522399 heartbeat IPC: 0.360294 cumulative IPC: 0.335069 (Simulation time: 0 hr 30 min 38 sec) 
Heartbeat CPU 0 instructions: 190000003 cycles: 563355490 heartbeat IPC: 0.346824 cumulative IPC: 0.335671 (Simulation time: 0 hr 32 min 15 sec) 
Heartbeat CPU 0 instructions: 200000001 cycles: 592557892 heartbeat IPC: 0.342438 cumulative IPC: 0.336005 (Simulation time: 0 hr 33 min 53 sec) 
Heartbeat CPU 0 instructions: 210000001 cycles: 622141601 heartbeat IPC: 0.338024 cumulative IPC: 0.336101 (Simulation time: 0 hr 35 min 32 sec) 
Heartbeat CPU 0 instructions: 220000000 cycles: 650392524 heartbeat IPC: 0.353971 cumulative IPC: 0.336877 (Simulation time: 0 hr 37 min 8 sec) 
Heartbeat CPU 0 instructions: 230000000 cycles: 680759893 heartbeat IPC: 0.329301 cumulative IPC: 0.336539 (Simulation time: 0 hr 38 min 46 sec) 
Heartbeat CPU 0 instructions: 240000000 cycles: 708745707 heartbeat IPC: 0.357324 cumulative IPC: 0.33736 (Simulation time: 0 hr 40 min 19 sec) 
Heartbeat CPU 0 instructions: 250000001 cycles: 737618796 heartbeat IPC: 0.346343 cumulative IPC: 0.337712 (Simulation time: 0 hr 41 min 55 sec) 
Heartbeat CPU 0 instructions: 260000004 cycles: 766550300 heartbeat IPC: 0.345644 cumulative IPC: 0.338011 (Simulation time: 0 hr 43 min 31 sec) 
Heartbeat CPU 0 instructions: 270000001 cycles: 795537568 heartbeat IPC: 0.344979 cumulative IPC: 0.338265 (Simulation time: 0 hr 45 min 4 sec) 
Heartbeat CPU 0 instructions: 280000001 cycles: 824497480 heartbeat IPC: 0.345305 cumulative IPC: 0.338513 (Simulation time: 0 hr 46 min 36 sec) 
Heartbeat CPU 0 instructions: 290000000 cycles: 852297862 heartbeat IPC: 0.359707 cumulative IPC: 0.339204 (Simulation time: 0 hr 48 min 4 sec) 
Heartbeat CPU 0 instructions: 300000000 cycles: 881205923 heartbeat IPC: 0.345924 cumulative IPC: 0.339425 (Simulation time: 0 hr 49 min 37 sec) 
Heartbeat CPU 0 instructions: 310000003 cycles: 907644491 heartbeat IPC: 0.378235 cumulative IPC: 0.340556 (Simulation time: 0 hr 51 min 7 sec) 
Heartbeat CPU 0 instructions: 320000000 cycles: 935648714 heartbeat IPC: 0.357089 cumulative IPC: 0.341051 (Simulation time: 0 hr 52 min 42 sec) 
Heartbeat CPU 0 instructions: 330000002 cycles: 962948749 heartbeat IPC: 0.3663 cumulative IPC: 0.341767 (Simulation time: 0 hr 54 min 14 sec) 
Heartbeat CPU 0 instructions: 340000000 cycles: 989995021 heartbeat IPC: 0.369737 cumulative IPC: 0.342531 (Simulation time: 0 hr 55 min 45 sec) 
Heartbeat CPU 0 instructions: 350000003 cycles: 1017224790 heartbeat IPC: 0.367245 cumulative IPC: 0.343193 (Simulation time: 0 hr 57 min 15 sec) 
Heartbeat CPU 0 instructions: 360000000 cycles: 1043856151 heartbeat IPC: 0.375497 cumulative IPC: 0.344017 (Simulation time: 0 hr 58 min 44 sec) 
Heartbeat CPU 0 instructions: 370000002 cycles: 1070643230 heartbeat IPC: 0.373314 cumulative IPC: 0.344751 (Simulation time: 1 hr 0 min 11 sec) 
Heartbeat CPU 0 instructions: 380000001 cycles: 1097719017 heartbeat IPC: 0.369334 cumulative IPC: 0.345357 (Simulation time: 1 hr 1 min 42 sec) 
Heartbeat CPU 0 instructions: 390000000 cycles: 1124948420 heartbeat IPC: 0.36725 cumulative IPC: 0.345887 (Simulation time: 1 hr 3 min 10 sec) 
Heartbeat CPU 0 instructions: 400000002 cycles: 1151983149 heartbeat IPC: 0.369895 cumulative IPC: 0.346451 (Simulation time: 1 hr 4 min 38 sec) 
Heartbeat CPU 0 instructions: 410000002 cycles: 1179209062 heartbeat IPC: 0.367297 cumulative IPC: 0.346932 (Simulation time: 1 hr 6 min 5 sec) 
Heartbeat CPU 0 instructions: 420000001 cycles: 1206443315 heartbeat IPC: 0.367185 cumulative IPC: 0.347389 (Simulation time: 1 hr 7 min 30 sec) 
Heartbeat CPU 0 instructions: 430000000 cycles: 1233590866 heartbeat IPC: 0.368357 cumulative IPC: 0.347851 (Simulation time: 1 hr 8 min 53 sec) 
Heartbeat CPU 0 instructions: 440000003 cycles: 1260651618 heartbeat IPC: 0.369539 cumulative IPC: 0.348317 (Simulation time: 1 hr 10 min 20 sec) 
Heartbeat CPU 0 instructions: 450000004 cycles: 1288504242 heartbeat IPC: 0.359033 cumulative IPC: 0.348548 (Simulation time: 1 hr 11 min 44 sec) 
Heartbeat CPU 0 instructions: 460000000 cycles: 1316717559 heartbeat IPC: 0.354442 cumulative IPC: 0.348675 (Simulation time: 1 hr 13 min 9 sec) 
Heartbeat CPU 0 instructions: 470000000 cycles: 1345722277 heartbeat IPC: 0.344772 cumulative IPC: 0.348591 (Simulation time: 1 hr 14 min 35 sec) 
Heartbeat CPU 0 instructions: 480000000 cycles: 1373866469 heartbeat IPC: 0.355313 cumulative IPC: 0.348728 (Simulation time: 1 hr 15 min 57 sec) 
Heartbeat CPU 0 instructions: 490000003 cycles: 1402080663 heartbeat IPC: 0.354432 cumulative IPC: 0.348843 (Simulation time: 1 hr 17 min 25 sec) 
Heartbeat CPU 0 instructions: 500000000 cycles: 1431381509 heartbeat IPC: 0.341287 cumulative IPC: 0.348688 (Simulation time: 1 hr 18 min 55 sec) 
Heartbeat CPU 0 instructions: 510000003 cycles: 1459517384 heartbeat IPC: 0.355418 cumulative IPC: 0.348818 (Simulation time: 1 hr 20 min 17 sec) 
Heartbeat CPU 0 instructions: 520000000 cycles: 1487712488 heartbeat IPC: 0.354671 cumulative IPC: 0.348929 (Simulation time: 1 hr 21 min 39 sec) 
Heartbeat CPU 0 instructions: 530000004 cycles: 1516892310 heartbeat IPC: 0.342703 cumulative IPC: 0.348809 (Simulation time: 1 hr 23 min 5 sec) 
Heartbeat CPU 0 instructions: 540000002 cycles: 1545193484 heartbeat IPC: 0.353342 cumulative IPC: 0.348892 (Simulation time: 1 hr 24 min 25 sec) 
Heartbeat CPU 0 instructions: 550000004 cycles: 1574445488 heartbeat IPC: 0.341857 cumulative IPC: 0.348762 (Simulation time: 1 hr 25 min 50 sec) 
Heartbeat CPU 0 instructions: 560000003 cycles: 1603504287 heartbeat IPC: 0.34413 cumulative IPC: 0.348678 (Simulation time: 1 hr 27 min 12 sec) 
Heartbeat CPU 0 instructions: 570000001 cycles: 1646844402 heartbeat IPC: 0.230733 cumulative IPC: 0.345573 (Simulation time: 1 hr 28 min 58 sec) 
Heartbeat CPU 0 instructions: 580000004 cycles: 1678316270 heartbeat IPC: 0.317744 cumulative IPC: 0.345051 (Simulation time: 1 hr 30 min 30 sec) 
Heartbeat CPU 0 instructions: 590000000 cycles: 1710122598 heartbeat IPC: 0.314403 cumulative IPC: 0.344481 (Simulation time: 1 hr 32 min 6 sec) 
Heartbeat CPU 0 instructions: 600000000 cycles: 1741301304 heartbeat IPC: 0.320732 cumulative IPC: 0.344056 (Simulation time: 1 hr 33 min 34 sec) 
Heartbeat CPU 0 instructions: 610000001 cycles: 1772638922 heartbeat IPC: 0.319105 cumulative IPC: 0.343615 (Simulation time: 1 hr 35 min 11 sec) 
Heartbeat CPU 0 instructions: 620000002 cycles: 1802708502 heartbeat IPC: 0.332562 cumulative IPC: 0.34343 (Simulation time: 1 hr 36 min 39 sec) 
Heartbeat CPU 0 instructions: 630000001 cycles: 1833758170 heartbeat IPC: 0.322065 cumulative IPC: 0.343068 (Simulation time: 1 hr 38 min 7 sec) 
Heartbeat CPU 0 instructions: 640000000 cycles: 1864669187 heartbeat IPC: 0.323509 cumulative IPC: 0.342744 (Simulation time: 1 hr 39 min 36 sec) 
Heartbeat CPU 0 instructions: 650000000 cycles: 1894559870 heartbeat IPC: 0.334552 cumulative IPC: 0.342615 (Simulation time: 1 hr 41 min 3 sec) 
Heartbeat CPU 0 instructions: 660000004 cycles: 1925379706 heartbeat IPC: 0.324466 cumulative IPC: 0.342324 (Simulation time: 1 hr 42 min 35 sec) 
Heartbeat CPU 0 instructions: 670000002 cycles: 1956232955 heartbeat IPC: 0.324115 cumulative IPC: 0.342037 (Simulation time: 1 hr 44 min 1 sec) 
Heartbeat CPU 0 instructions: 680000000 cycles: 1986983074 heartbeat IPC: 0.325202 cumulative IPC: 0.341776 (Simulation time: 1 hr 45 min 32 sec) 
Heartbeat CPU 0 instructions: 690000001 cycles: 2016967585 heartbeat IPC: 0.333506 cumulative IPC: 0.341653 (Simulation time: 1 hr 46 min 57 sec) 
Heartbeat CPU 0 instructions: 700000000 cycles: 2048040202 heartbeat IPC: 0.321827 cumulative IPC: 0.341353 (Simulation time: 1 hr 48 min 27 sec) 
Heartbeat CPU 0 instructions: 710000000 cycles: 2078633504 heartbeat IPC: 0.326869 cumulative IPC: 0.341139 (Simulation time: 1 hr 49 min 51 sec) 
Heartbeat CPU 0 instructions: 720000000 cycles: 2109670318 heartbeat IPC: 0.322198 cumulative IPC: 0.340861 (Simulation time: 1 hr 51 min 21 sec) 
Heartbeat CPU 0 instructions: 730000002 cycles: 2141172810 heartbeat IPC: 0.317435 cumulative IPC: 0.340516 (Simulation time: 1 hr 52 min 50 sec) 
Heartbeat CPU 0 instructions: 740000002 cycles: 2171915860 heartbeat IPC: 0.325277 cumulative IPC: 0.3403 (Simulation time: 1 hr 54 min 17 sec) 
Heartbeat CPU 0 instructions: 750000001 cycles: 2202471416 heartbeat IPC: 0.327273 cumulative IPC: 0.340119 (Simulation time: 1 hr 55 min 47 sec) 
Heartbeat CPU 0 instructions: 760000000 cycles: 2233807287 heartbeat IPC: 0.319123 cumulative IPC: 0.339825 (Simulation time: 1 hr 57 min 19 sec) 
Heartbeat CPU 0 instructions: 770000000 cycles: 2265140186 heartbeat IPC: 0.319153 cumulative IPC: 0.339539 (Simulation time: 1 hr 58 min 52 sec) 
Heartbeat CPU 0 instructions: 780000000 cycles: 2296222594 heartbeat IPC: 0.321725 cumulative IPC: 0.339298 (Simulation time: 2 hr 0 min 22 sec) 
Heartbeat CPU 0 instructions: 790000000 cycles: 2327430117 heartbeat IPC: 0.320436 cumulative IPC: 0.339045 (Simulation time: 2 hr 1 min 53 sec) 
Heartbeat CPU 0 instructions: 800000000 cycles: 2362391955 heartbeat IPC: 0.286026 cumulative IPC: 0.33826 (Simulation time: 2 hr 3 min 31 sec) 
Heartbeat CPU 0 instructions: 810000002 cycles: 2396332363 heartbeat IPC: 0.294634 cumulative IPC: 0.337642 (Simulation time: 2 hr 5 min 13 sec) 
Heartbeat CPU 0 instructions: 820000001 cycles: 2430350554 heartbeat IPC: 0.29396 cumulative IPC: 0.337031 (Simulation time: 2 hr 6 min 52 sec) 
Heartbeat CPU 0 instructions: 830000000 cycles: 2465443087 heartbeat IPC: 0.284961 cumulative IPC: 0.336289 (Simulation time: 2 hr 8 min 30 sec) 
Heartbeat CPU 0 instructions: 840000002 cycles: 2499797280 heartbeat IPC: 0.291085 cumulative IPC: 0.335668 (Simulation time: 2 hr 10 min 5 sec) 
Heartbeat CPU 0 instructions: 850000001 cycles: 2537406741 heartbeat IPC: 0.265891 cumulative IPC: 0.334634 (Simulation time: 2 hr 11 min 49 sec) 
Heartbeat CPU 0 instructions: 860000001 cycles: 2573724198 heartbeat IPC: 0.27535 cumulative IPC: 0.333797 (Simulation time: 2 hr 13 min 36 sec) 
Heartbeat CPU 0 instructions: 870000003 cycles: 2610054300 heartbeat IPC: 0.275254 cumulative IPC: 0.332982 (Simulation time: 2 hr 15 min 21 sec) 
Heartbeat CPU 0 instructions: 880000001 cycles: 2646365966 heartbeat IPC: 0.275394 cumulative IPC: 0.332192 (Simulation time: 2 hr 17 min 5 sec) 
Heartbeat CPU 0 instructions: 890000000 cycles: 2683269077 heartbeat IPC: 0.27098 cumulative IPC: 0.33135 (Simulation time: 2 hr 18 min 46 sec) 
Heartbeat CPU 0 instructions: 900000000 cycles: 2720142147 heartbeat IPC: 0.271201 cumulative IPC: 0.330534 (Simulation time: 2 hr 20 min 40 sec) 
Heartbeat CPU 0 instructions: 910000002 cycles: 2756462143 heartbeat IPC: 0.27533 cumulative IPC: 0.329807 (Simulation time: 2 hr 22 min 24 sec) 
Heartbeat CPU 0 instructions: 920000002 cycles: 2793889436 heartbeat IPC: 0.267185 cumulative IPC: 0.328968 (Simulation time: 2 hr 23 min 55 sec) 
Heartbeat CPU 0 instructions: 930000004 cycles: 2830946947 heartbeat IPC: 0.269851 cumulative IPC: 0.328194 (Simulation time: 2 hr 25 min 26 sec) 
Heartbeat CPU 0 instructions: 940000000 cycles: 2868173338 heartbeat IPC: 0.268627 cumulative IPC: 0.327421 (Simulation time: 2 hr 26 min 57 sec) 
Heartbeat CPU 0 instructions: 950000003 cycles: 2905423413 heartbeat IPC: 0.268456 cumulative IPC: 0.326665 (Simulation time: 2 hr 28 min 27 sec) 
Heartbeat CPU 0 instructions: 960000002 cycles: 2942609499 heartbeat IPC: 0.268918 cumulative IPC: 0.325935 (Simulation time: 2 hr 29 min 58 sec) 
Heartbeat CPU 0 instructions: 970000001 cycles: 2980854226 heartbeat IPC: 0.261474 cumulative IPC: 0.325108 (Simulation time: 2 hr 31 min 30 sec) 
Heartbeat CPU 0 instructions: 980000001 cycles: 3018242401 heartbeat IPC: 0.267464 cumulative IPC: 0.324394 (Simulation time: 2 hr 33 min 0 sec) 
Heartbeat CPU 0 instructions: 990000003 cycles: 3054774599 heartbeat IPC: 0.273731 cumulative IPC: 0.323788 (Simulation time: 2 hr 34 min 27 sec) 
Heartbeat CPU 0 instructions: 1000000002 cycles: 3091305309 heartbeat IPC: 0.273742 cumulative IPC: 0.323196 (Simulation time: 2 hr 35 min 54 sec) 
Finished CPU 0 instructions: 1000000002 cycles: 3094766392 cumulative IPC: 0.323126 (Simulation time: 2 hr 36 min 3 sec) 

ChampSim completed all CPUs

Region of Interest Statistics

CPU 0 cumulative IPC: 0.323126 instructions: 1000000002 cycles: 3094766392
cpu0_DTLB TOTAL     ACCESS:  268440799  HIT:  251044729  MISS:   17396070
cpu0_DTLB LOAD      ACCESS:  204630003  HIT:  189432754  MISS:   15197249
cpu0_DTLB RFO       ACCESS:   63810796  HIT:   61611975  MISS:    2198821
cpu0_DTLB PREFETCH  ACCESS:          0  HIT:          0  MISS:          0
cpu0_DTLB WRITEBACK ACCESS:          0  HIT:          0  MISS:          0
cpu0_DTLB TRANSLATION ACCESS:          0  HIT:          0  MISS:          0
cpu0_DTLB PREFETCH  REQUESTED:          0  ISSUED:          0  USEFUL:          0  USELESS:          0
cpu0_DTLB AVERAGE MISS LATENCY: 10.8092 cycles
cpu0_ITLB TOTAL     ACCESS:  151456910  HIT:  151456910  MISS:          0
cpu0_ITLB LOAD      ACCESS:  151456910  HIT:  151456910  MISS:          0
cpu0_ITLB RFO       ACCESS:          0  HIT:          0  MISS:          0
cpu0_ITLB PREFETCH  ACCESS:          0  HIT:          0  MISS:          0
cpu0_ITLB WRITEBACK ACCESS:          0  HIT:          0  MISS:          0
cpu0_ITLB TRANSLATION ACCESS:          0  HIT:          0  MISS:          0
cpu0_ITLB PREFETCH  REQUESTED:          0  ISSUED:          0  USEFUL:          0  USELESS:          0
cpu0_ITLB AVERAGE MISS LATENCY: -nan cycles
cpu0_L1I TOTAL     ACCESS:    2055155  HIT:    2055153  MISS:          2
cpu0_L1I LOAD      ACCESS:    2055155  HIT:    2055153  MISS:          2
cpu0_L1I RFO       ACCESS:          0  HIT:          0  MISS:          0
cpu0_L1I PREFETCH  ACCESS:          0  HIT:          0  MISS:          0
cpu0_L1I WRITEBACK ACCESS:          0  HIT:          0  MISS:          0
cpu0_L1I TRANSLATION ACCESS:          0  HIT:          0  MISS:          0
cpu0_L1I PREFETCH  REQUESTED:          0  ISSUED:          0  USEFUL:          0  USELESS:          0
cpu0_L1I AVERAGE MISS LATENCY: 340.5 cycles
cpu0_STLB TOTAL     ACCESS:   17396070  HIT:   17147614  MISS:     248456
cpu0_STLB LOAD      ACCESS:   15197249  HIT:   14952574  MISS:     244675
cpu0_STLB RFO       ACCESS:    2198821  HIT:    2195040  MISS:       3781
cpu0_STLB PREFETCH  ACCESS:          0  HIT:          0  MISS:          0
cpu0_STLB WRITEBACK ACCESS:          0  HIT:          0  MISS:          0
cpu0_STLB TRANSLATION ACCESS:          0  HIT:          0  MISS:          0
cpu0_STLB PREFETCH  REQUESTED:          0  ISSUED:          0  USEFUL:          0  USELESS:          0
cpu0_STLB AVERAGE MISS LATENCY: 126.364 cycles
cpu0_L1D TOTAL     ACCESS:  615532462  HIT:  543495693  MISS:   72036769
cpu0_L1D LOAD      ACCESS:  259072678  HIT:  221747504  MISS:   37325174
cpu0_L1D RFO       ACCESS:  107918815  HIT:  103766466  MISS:    4152349
cpu0_L1D PREFETCH  ACCESS:  248293183  HIT:  217795796  MISS:   30497387
cpu0_L1D WRITEBACK ACCESS:          0  HIT:          0  MISS:          0
cpu0_L1D TRANSLATION ACCESS:     247786  HIT:     185927  MISS:      61859
cpu0_L1D PREFETCH  REQUESTED:  260785557  ISSUED:  258194355  USEFUL:   12435399  USELESS:   20695739
cpu0_L1D AVERAGE MISS LATENCY: 112.899 cycles
cpu0_L2C TOTAL     ACCESS:   81930526  HIT:   33658493  MISS:   48272033
cpu0_L2C LOAD      ACCESS:   34718589  HIT:   12547444  MISS:   22171145
cpu0_L2C RFO       ACCESS:    4124930  HIT:     949393  MISS:    3175537
cpu0_L2C PREFETCH  ACCESS:   36538488  HIT:   13641249  MISS:   22897239
cpu0_L2C WRITEBACK ACCESS:    6486660  HIT:    6478939  MISS:       7721
cpu0_L2C TRANSLATION ACCESS:      61859  HIT:      41468  MISS:      20391
cpu0_L2C PREFETCH  REQUESTED:    4429192  ISSUED:    3717168  USEFUL:     419646  USELESS:     302547
cpu0_L2C AVERAGE MISS LATENCY: 175.781 cycles
LLC TOTAL     ACCESS:   52934304  HIT:   35068410  MISS:   17865894
LLC LOAD      ACCESS:   22171041  HIT:   13878020  MISS:    8293021
LLC RFO       ACCESS:    3175480  HIT:    3101359  MISS:      74121
LLC PREFETCH  ACCESS:   23027077  HIT:   13534856  MISS:    9492221
LLC WRITEBACK ACCESS:    4540315  HIT:    4535888  MISS:       4427
LLC TRANSLATION ACCESS:      20391  HIT:      18287  MISS:       2104
LLC PREFETCH  REQUESTED:          0  ISSUED:          0  USEFUL:          0  USELESS:          0
LLC AVERAGE MISS LATENCY: 406.055 cycles

DRAM Statistics
 CHANNEL 0
 RQ ROW_BUFFER_HIT:    1755807  ROW_BUFFER_MISS:   16072131
 DBUS AVG_CONGESTED_CYCLE:    3.78299
 WQ ROW_BUFFER_HIT:      53025  ROW_BUFFER_MISS:     351712  FULL:          0


CPU 0 Branch Prediction Accuracy: 90.3357% MPKI: 24.2248 Average ROB Occupancy at Mispredict: 23.8162
Branch type MPKI
BRANCH_DIRECT_JUMP: 3e-06
BRANCH_INDIRECT: 0
BRANCH_CONDITIONAL: 24.2236
BRANCH_DIRECT_CALL: 0
BRANCH_INDIRECT_CALL: 0.001178
BRANCH_RETURN: 0

