
*** ChampSim Multicore Out-of-Order Simulator ***

Warmup Instructions: 1000000
Simulation Instructions: 1000000000
Number of CPUs: 1
Off-chip DRAM Size: 4 GiB Channels: 1 Width: 64-bit Data Rate: 3200 MT/s

VirtualMemory physical capacity: 8588881920 num_ppages: 2096895
VirtualMemory page size: 4096 log2_page_size: 12

CPU 0 runs tracer/pin/traces/spec2k6/445.gobmk-30B.champsimtrace.xz
Basic BTB sets: 1024 ways: 8 indirect buffer size: 4096 RAS size: 64
cpu0_L1D next line prefetcher
cpu0_L2C IP-based stride prefetcher
WARNING: The extended signature CACHE::prefetch_line(ip, base_addr, pf_addr, fill_this_level, prefetch_metadata) is deprecated.
WARNING: Use CACHE::prefetch_line(pf_addr, fill_this_level, prefetch_metadata) instead.

Warmup complete CPU 0 instructions: 1000003 cycles: 250081 (Simulation time: 0 hr 0 min 3 sec) 

Heartbeat CPU 0 instructions: 10000000 cycles: 11195432 heartbeat IPC: 0.893221 cumulative IPC: 0.822267 (Simulation time: 0 hr 1 min 5 sec) 
Heartbeat CPU 0 instructions: 20000001 cycles: 21934413 heartbeat IPC: 0.931187 cumulative IPC: 0.876209 (Simulation time: 0 hr 2 min 7 sec) 
Heartbeat CPU 0 instructions: 30000001 cycles: 32566103 heartbeat IPC: 0.940584 cumulative IPC: 0.897388 (Simulation time: 0 hr 3 min 10 sec) 
Heartbeat CPU 0 instructions: 40000000 cycles: 43080519 heartbeat IPC: 0.951075 cumulative IPC: 0.910567 (Simulation time: 0 hr 4 min 10 sec) 
Heartbeat CPU 0 instructions: 50000004 cycles: 53758998 heartbeat IPC: 0.936463 cumulative IPC: 0.915735 (Simulation time: 0 hr 5 min 8 sec) 
Heartbeat CPU 0 instructions: 60000001 cycles: 64349108 heartbeat IPC: 0.944277 cumulative IPC: 0.920451 (Simulation time: 0 hr 6 min 5 sec) 
Heartbeat CPU 0 instructions: 70000000 cycles: 75179341 heartbeat IPC: 0.923341 cumulative IPC: 0.920869 (Simulation time: 0 hr 7 min 6 sec) 
Heartbeat CPU 0 instructions: 80000002 cycles: 85244536 heartbeat IPC: 0.993523 cumulative IPC: 0.929472 (Simulation time: 0 hr 8 min 3 sec) 
Heartbeat CPU 0 instructions: 90000001 cycles: 95660819 heartbeat IPC: 0.960035 cumulative IPC: 0.932809 (Simulation time: 0 hr 9 min 1 sec) 
Heartbeat CPU 0 instructions: 100000004 cycles: 106154873 heartbeat IPC: 0.952921 cumulative IPC: 0.934802 (Simulation time: 0 hr 9 min 59 sec) 
Heartbeat CPU 0 instructions: 110000004 cycles: 116681921 heartbeat IPC: 0.949934 cumulative IPC: 0.93617 (Simulation time: 0 hr 10 min 54 sec) 
Heartbeat CPU 0 instructions: 120000000 cycles: 127649275 heartbeat IPC: 0.911797 cumulative IPC: 0.934072 (Simulation time: 0 hr 11 min 51 sec) 
Heartbeat CPU 0 instructions: 130000001 cycles: 138422265 heartbeat IPC: 0.928248 cumulative IPC: 0.933618 (Simulation time: 0 hr 12 min 48 sec) 
Heartbeat CPU 0 instructions: 140000003 cycles: 149468005 heartbeat IPC: 0.905327 cumulative IPC: 0.931524 (Simulation time: 0 hr 13 min 47 sec) 
Heartbeat CPU 0 instructions: 150000004 cycles: 169370015 heartbeat IPC: 0.502462 cumulative IPC: 0.881032 (Simulation time: 0 hr 16 min 19 sec) 
Heartbeat CPU 0 instructions: 160000000 cycles: 213036248 heartbeat IPC: 0.22901 cumulative IPC: 0.747229 (Simulation time: 0 hr 21 min 44 sec) 
Heartbeat CPU 0 instructions: 170000000 cycles: 243360696 heartbeat IPC: 0.329767 cumulative IPC: 0.695157 (Simulation time: 0 hr 24 min 55 sec) 
Heartbeat CPU 0 instructions: 180000002 cycles: 254062555 heartbeat IPC: 0.934417 cumulative IPC: 0.705245 (Simulation time: 0 hr 25 min 50 sec) 
Heartbeat CPU 0 instructions: 190000000 cycles: 264251781 heartbeat IPC: 0.981429 cumulative IPC: 0.715904 (Simulation time: 0 hr 26 min 47 sec) 
Heartbeat CPU 0 instructions: 200000000 cycles: 274286825 heartbeat IPC: 0.996508 cumulative IPC: 0.72618 (Simulation time: 0 hr 27 min 40 sec) 
Heartbeat CPU 0 instructions: 210000000 cycles: 284654295 heartbeat IPC: 0.964556 cumulative IPC: 0.73487 (Simulation time: 0 hr 28 min 36 sec) 
Heartbeat CPU 0 instructions: 220000004 cycles: 295536307 heartbeat IPC: 0.918948 cumulative IPC: 0.741653 (Simulation time: 0 hr 29 min 31 sec) 
Heartbeat CPU 0 instructions: 230000000 cycles: 306235242 heartbeat IPC: 0.934672 cumulative IPC: 0.748402 (Simulation time: 0 hr 30 min 22 sec) 
Heartbeat CPU 0 instructions: 240000000 cycles: 316521110 heartbeat IPC: 0.972208 cumulative IPC: 0.755681 (Simulation time: 0 hr 31 min 12 sec) 
Heartbeat CPU 0 instructions: 250000000 cycles: 326953641 heartbeat IPC: 0.95854 cumulative IPC: 0.762159 (Simulation time: 0 hr 32 min 5 sec) 
Heartbeat CPU 0 instructions: 260000002 cycles: 337476724 heartbeat IPC: 0.950292 cumulative IPC: 0.768029 (Simulation time: 0 hr 32 min 55 sec) 
Heartbeat CPU 0 instructions: 270000002 cycles: 348009760 heartbeat IPC: 0.949394 cumulative IPC: 0.773523 (Simulation time: 0 hr 33 min 43 sec) 
Heartbeat CPU 0 instructions: 280000004 cycles: 358498255 heartbeat IPC: 0.953426 cumulative IPC: 0.77879 (Simulation time: 0 hr 34 min 33 sec) 
Heartbeat CPU 0 instructions: 290000004 cycles: 369020018 heartbeat IPC: 0.950411 cumulative IPC: 0.783686 (Simulation time: 0 hr 35 min 25 sec) 
Heartbeat CPU 0 instructions: 300000000 cycles: 379774384 heartbeat IPC: 0.929855 cumulative IPC: 0.787828 (Simulation time: 0 hr 36 min 14 sec) 
Heartbeat CPU 0 instructions: 310000000 cycles: 390443487 heartbeat IPC: 0.937286 cumulative IPC: 0.791915 (Simulation time: 0 hr 37 min 6 sec) 
Heartbeat CPU 0 instructions: 320000003 cycles: 401067925 heartbeat IPC: 0.941227 cumulative IPC: 0.795873 (Simulation time: 0 hr 37 min 55 sec) 
Heartbeat CPU 0 instructions: 330000000 cycles: 410928318 heartbeat IPC: 1.01416 cumulative IPC: 0.801114 (Simulation time: 0 hr 38 min 43 sec) 
Heartbeat CPU 0 instructions: 340000003 cycles: 420230176 heartbeat IPC: 1.07505 cumulative IPC: 0.807181 (Simulation time: 0 hr 39 min 29 sec) 
Heartbeat CPU 0 instructions: 350000002 cycles: 430226045 heartbeat IPC: 1.00041 cumulative IPC: 0.811673 (Simulation time: 0 hr 40 min 18 sec) 
Heartbeat CPU 0 instructions: 360000004 cycles: 440841609 heartbeat IPC: 0.942013 cumulative IPC: 0.814814 (Simulation time: 0 hr 41 min 8 sec) 
Heartbeat CPU 0 instructions: 370000001 cycles: 451672461 heartbeat IPC: 0.923288 cumulative IPC: 0.817416 (Simulation time: 0 hr 41 min 59 sec) 
Heartbeat CPU 0 instructions: 380000002 cycles: 462516248 heartbeat IPC: 0.922187 cumulative IPC: 0.819874 (Simulation time: 0 hr 42 min 51 sec) 
Heartbeat CPU 0 instructions: 390000001 cycles: 473739059 heartbeat IPC: 0.891042 cumulative IPC: 0.821561 (Simulation time: 0 hr 43 min 44 sec) 
Heartbeat CPU 0 instructions: 400000000 cycles: 484759737 heartbeat IPC: 0.907385 cumulative IPC: 0.823513 (Simulation time: 0 hr 44 min 37 sec) 
Heartbeat CPU 0 instructions: 410000000 cycles: 495767579 heartbeat IPC: 0.908443 cumulative IPC: 0.8254 (Simulation time: 0 hr 45 min 31 sec) 
Heartbeat CPU 0 instructions: 420000000 cycles: 506628362 heartbeat IPC: 0.920744 cumulative IPC: 0.827445 (Simulation time: 0 hr 46 min 23 sec) 
Heartbeat CPU 0 instructions: 430000002 cycles: 517327716 heartbeat IPC: 0.934636 cumulative IPC: 0.829663 (Simulation time: 0 hr 47 min 12 sec) 
Heartbeat CPU 0 instructions: 440000001 cycles: 528231451 heartbeat IPC: 0.917117 cumulative IPC: 0.831469 (Simulation time: 0 hr 48 min 4 sec) 
Heartbeat CPU 0 instructions: 450000000 cycles: 539249454 heartbeat IPC: 0.907605 cumulative IPC: 0.833025 (Simulation time: 0 hr 48 min 56 sec) 
Heartbeat CPU 0 instructions: 460000004 cycles: 550158402 heartbeat IPC: 0.916679 cumulative IPC: 0.834685 (Simulation time: 0 hr 49 min 46 sec) 
Heartbeat CPU 0 instructions: 470000001 cycles: 560855784 heartbeat IPC: 0.934808 cumulative IPC: 0.836595 (Simulation time: 0 hr 50 min 36 sec) 
Heartbeat CPU 0 instructions: 480000001 cycles: 571703518 heartbeat IPC: 0.921852 cumulative IPC: 0.838214 (Simulation time: 0 hr 51 min 25 sec) 
Heartbeat CPU 0 instructions: 490000000 cycles: 582415854 heartbeat IPC: 0.933503 cumulative IPC: 0.839967 (Simulation time: 0 hr 52 min 14 sec) 
Heartbeat CPU 0 instructions: 500000003 cycles: 593133742 heartbeat IPC: 0.93302 cumulative IPC: 0.841649 (Simulation time: 0 hr 53 min 4 sec) 
Heartbeat CPU 0 instructions: 510000000 cycles: 604148198 heartbeat IPC: 0.907897 cumulative IPC: 0.842857 (Simulation time: 0 hr 53 min 54 sec) 
Heartbeat CPU 0 instructions: 520000004 cycles: 614790308 heartbeat IPC: 0.939664 cumulative IPC: 0.844534 (Simulation time: 0 hr 54 min 43 sec) 
Heartbeat CPU 0 instructions: 530000000 cycles: 625724467 heartbeat IPC: 0.914565 cumulative IPC: 0.845758 (Simulation time: 0 hr 55 min 33 sec) 
Heartbeat CPU 0 instructions: 540000000 cycles: 636484634 heartbeat IPC: 0.929354 cumulative IPC: 0.847172 (Simulation time: 0 hr 56 min 23 sec) 
Heartbeat CPU 0 instructions: 550000003 cycles: 647107743 heartbeat IPC: 0.941344 cumulative IPC: 0.848718 (Simulation time: 0 hr 57 min 11 sec) 
Heartbeat CPU 0 instructions: 560000001 cycles: 657758720 heartbeat IPC: 0.938881 cumulative IPC: 0.850179 (Simulation time: 0 hr 58 min 0 sec) 
Heartbeat CPU 0 instructions: 570000004 cycles: 668534878 heartbeat IPC: 0.927975 cumulative IPC: 0.851433 (Simulation time: 0 hr 58 min 48 sec) 
Heartbeat CPU 0 instructions: 580000004 cycles: 679123624 heartbeat IPC: 0.944399 cumulative IPC: 0.852883 (Simulation time: 0 hr 59 min 33 sec) 
Heartbeat CPU 0 instructions: 590000003 cycles: 689967976 heartbeat IPC: 0.922139 cumulative IPC: 0.853972 (Simulation time: 1 hr 0 min 21 sec) 
Heartbeat CPU 0 instructions: 600000003 cycles: 700726732 heartbeat IPC: 0.929475 cumulative IPC: 0.855132 (Simulation time: 1 hr 1 min 8 sec) 
Heartbeat CPU 0 instructions: 610000004 cycles: 711280026 heartbeat IPC: 0.947572 cumulative IPC: 0.856504 (Simulation time: 1 hr 1 min 52 sec) 
Heartbeat CPU 0 instructions: 620000000 cycles: 722226209 heartbeat IPC: 0.91356 cumulative IPC: 0.857369 (Simulation time: 1 hr 2 min 38 sec) 
Heartbeat CPU 0 instructions: 630000002 cycles: 732747363 heartbeat IPC: 0.950466 cumulative IPC: 0.858706 (Simulation time: 1 hr 3 min 25 sec) 
Heartbeat CPU 0 instructions: 640000001 cycles: 743339256 heartbeat IPC: 0.944118 cumulative IPC: 0.859924 (Simulation time: 1 hr 4 min 14 sec) 
Heartbeat CPU 0 instructions: 650000001 cycles: 754017070 heartbeat IPC: 0.936521 cumulative IPC: 0.861009 (Simulation time: 1 hr 5 min 2 sec) 
Heartbeat CPU 0 instructions: 660000001 cycles: 764880654 heartbeat IPC: 0.920507 cumulative IPC: 0.861854 (Simulation time: 1 hr 5 min 52 sec) 
Heartbeat CPU 0 instructions: 670000002 cycles: 775637870 heartbeat IPC: 0.929609 cumulative IPC: 0.862794 (Simulation time: 1 hr 6 min 40 sec) 
Heartbeat CPU 0 instructions: 680000002 cycles: 786680182 heartbeat IPC: 0.905607 cumulative IPC: 0.863395 (Simulation time: 1 hr 7 min 30 sec) 
Heartbeat CPU 0 instructions: 690000000 cycles: 797405394 heartbeat IPC: 0.932382 cumulative IPC: 0.864323 (Simulation time: 1 hr 8 min 18 sec) 
Heartbeat CPU 0 instructions: 700000004 cycles: 808368022 heartbeat IPC: 0.91219 cumulative IPC: 0.864973 (Simulation time: 1 hr 9 min 7 sec) 
Heartbeat CPU 0 instructions: 710000001 cycles: 819434743 heartbeat IPC: 0.90361 cumulative IPC: 0.865495 (Simulation time: 1 hr 9 min 55 sec) 
Heartbeat CPU 0 instructions: 720000001 cycles: 830245696 heartbeat IPC: 0.924988 cumulative IPC: 0.86627 (Simulation time: 1 hr 10 min 43 sec) 
Heartbeat CPU 0 instructions: 730000001 cycles: 841180643 heartbeat IPC: 0.914499 cumulative IPC: 0.866897 (Simulation time: 1 hr 11 min 29 sec) 
Heartbeat CPU 0 instructions: 740000000 cycles: 852090899 heartbeat IPC: 0.916569 cumulative IPC: 0.867533 (Simulation time: 1 hr 12 min 15 sec) 
Heartbeat CPU 0 instructions: 750000004 cycles: 862868961 heartbeat IPC: 0.927811 cumulative IPC: 0.868286 (Simulation time: 1 hr 12 min 59 sec) 
Heartbeat CPU 0 instructions: 760000003 cycles: 873825564 heartbeat IPC: 0.912692 cumulative IPC: 0.868843 (Simulation time: 1 hr 13 min 42 sec) 
Heartbeat CPU 0 instructions: 770000000 cycles: 884612312 heartbeat IPC: 0.927063 cumulative IPC: 0.869553 (Simulation time: 1 hr 14 min 23 sec) 
Heartbeat CPU 0 instructions: 780000000 cycles: 895857282 heartbeat IPC: 0.889287 cumulative IPC: 0.869801 (Simulation time: 1 hr 15 min 5 sec) 
Heartbeat CPU 0 instructions: 790000000 cycles: 906968141 heartbeat IPC: 0.90002 cumulative IPC: 0.870171 (Simulation time: 1 hr 15 min 46 sec) 
Heartbeat CPU 0 instructions: 800000000 cycles: 917816725 heartbeat IPC: 0.921779 cumulative IPC: 0.870781 (Simulation time: 1 hr 16 min 26 sec) 
Heartbeat CPU 0 instructions: 810000000 cycles: 928399804 heartbeat IPC: 0.944905 cumulative IPC: 0.871627 (Simulation time: 1 hr 17 min 5 sec) 
Heartbeat CPU 0 instructions: 820000001 cycles: 938793202 heartbeat IPC: 0.962149 cumulative IPC: 0.872629 (Simulation time: 1 hr 17 min 46 sec) 
Heartbeat CPU 0 instructions: 830000003 cycles: 949319079 heartbeat IPC: 0.95004 cumulative IPC: 0.873488 (Simulation time: 1 hr 18 min 26 sec) 
Heartbeat CPU 0 instructions: 840000000 cycles: 959709079 heartbeat IPC: 0.962464 cumulative IPC: 0.874451 (Simulation time: 1 hr 19 min 5 sec) 
Heartbeat CPU 0 instructions: 850000001 cycles: 969814634 heartbeat IPC: 0.989555 cumulative IPC: 0.875651 (Simulation time: 1 hr 19 min 43 sec) 
Heartbeat CPU 0 instructions: 860000000 cycles: 980556925 heartbeat IPC: 0.9309 cumulative IPC: 0.876256 (Simulation time: 1 hr 20 min 23 sec) 
Heartbeat CPU 0 instructions: 870000000 cycles: 991166483 heartbeat IPC: 0.942546 cumulative IPC: 0.876966 (Simulation time: 1 hr 21 min 3 sec) 
Heartbeat CPU 0 instructions: 880000000 cycles: 1001977157 heartbeat IPC: 0.925012 cumulative IPC: 0.877485 (Simulation time: 1 hr 21 min 42 sec) 
Heartbeat CPU 0 instructions: 890000000 cycles: 1013067119 heartbeat IPC: 0.901716 cumulative IPC: 0.87775 (Simulation time: 1 hr 22 min 22 sec) 
Heartbeat CPU 0 instructions: 900000002 cycles: 1023889383 heartbeat IPC: 0.924021 cumulative IPC: 0.878239 (Simulation time: 1 hr 23 min 1 sec) 
Heartbeat CPU 0 instructions: 910000001 cycles: 1034456280 heartbeat IPC: 0.946352 cumulative IPC: 0.878935 (Simulation time: 1 hr 23 min 39 sec) 
Heartbeat CPU 0 instructions: 920000000 cycles: 1045441111 heartbeat IPC: 0.910346 cumulative IPC: 0.879265 (Simulation time: 1 hr 24 min 19 sec) 
Heartbeat CPU 0 instructions: 930000000 cycles: 1056264885 heartbeat IPC: 0.923892 cumulative IPC: 0.879723 (Simulation time: 1 hr 24 min 58 sec) 
Heartbeat CPU 0 instructions: 940000001 cycles: 1067213355 heartbeat IPC: 0.91337 cumulative IPC: 0.880068 (Simulation time: 1 hr 25 min 37 sec) 
Heartbeat CPU 0 instructions: 950000002 cycles: 1078371384 heartbeat IPC: 0.896216 cumulative IPC: 0.880235 (Simulation time: 1 hr 26 min 16 sec) 
Heartbeat CPU 0 instructions: 960000001 cycles: 1089234111 heartbeat IPC: 0.920579 cumulative IPC: 0.880637 (Simulation time: 1 hr 26 min 56 sec) 
Heartbeat CPU 0 instructions: 970000001 cycles: 1100050355 heartbeat IPC: 0.924535 cumulative IPC: 0.881069 (Simulation time: 1 hr 27 min 34 sec) 
Heartbeat CPU 0 instructions: 980000000 cycles: 1111148806 heartbeat IPC: 0.901027 cumulative IPC: 0.881268 (Simulation time: 1 hr 28 min 13 sec) 
Heartbeat CPU 0 instructions: 990000002 cycles: 1122011677 heartbeat IPC: 0.920567 cumulative IPC: 0.881649 (Simulation time: 1 hr 28 min 52 sec) 
Heartbeat CPU 0 instructions: 1000000000 cycles: 1132894453 heartbeat IPC: 0.918883 cumulative IPC: 0.882007 (Simulation time: 1 hr 29 min 30 sec) 
Finished CPU 0 instructions: 1000000000 cycles: 1133794030 cumulative IPC: 0.881994 (Simulation time: 1 hr 29 min 34 sec) 

ChampSim completed all CPUs

Region of Interest Statistics

CPU 0 cumulative IPC: 0.881994 instructions: 1000000000 cycles: 1133794030
cpu0_DTLB TOTAL     ACCESS:  223129594  HIT:  222575238  MISS:     554356
cpu0_DTLB LOAD      ACCESS:  150883118  HIT:  150411045  MISS:     472073
cpu0_DTLB RFO       ACCESS:   72246476  HIT:   72164193  MISS:      82283
cpu0_DTLB PREFETCH  ACCESS:          0  HIT:          0  MISS:          0
cpu0_DTLB WRITEBACK ACCESS:          0  HIT:          0  MISS:          0
cpu0_DTLB TRANSLATION ACCESS:          0  HIT:          0  MISS:          0
cpu0_DTLB PREFETCH  REQUESTED:          0  ISSUED:          0  USEFUL:          0  USELESS:          0
cpu0_DTLB AVERAGE MISS LATENCY: 12.5813 cycles
cpu0_ITLB TOTAL     ACCESS:   78446306  HIT:   78443605  MISS:       2701
cpu0_ITLB LOAD      ACCESS:   78446306  HIT:   78443605  MISS:       2701
cpu0_ITLB RFO       ACCESS:          0  HIT:          0  MISS:          0
cpu0_ITLB PREFETCH  ACCESS:          0  HIT:          0  MISS:          0
cpu0_ITLB WRITEBACK ACCESS:          0  HIT:          0  MISS:          0
cpu0_ITLB TRANSLATION ACCESS:          0  HIT:          0  MISS:          0
cpu0_ITLB PREFETCH  REQUESTED:          0  ISSUED:          0  USEFUL:          0  USELESS:          0
cpu0_ITLB AVERAGE MISS LATENCY: 25.1666 cycles
cpu0_L1I TOTAL     ACCESS:  106893334  HIT:  103034511  MISS:    3858823
cpu0_L1I LOAD      ACCESS:  106893334  HIT:  103034511  MISS:    3858823
cpu0_L1I RFO       ACCESS:          0  HIT:          0  MISS:          0
cpu0_L1I PREFETCH  ACCESS:          0  HIT:          0  MISS:          0
cpu0_L1I WRITEBACK ACCESS:          0  HIT:          0  MISS:          0
cpu0_L1I TRANSLATION ACCESS:          0  HIT:          0  MISS:          0
cpu0_L1I PREFETCH  REQUESTED:          0  ISSUED:          0  USEFUL:          0  USELESS:          0
cpu0_L1I AVERAGE MISS LATENCY: 16.1629 cycles
cpu0_STLB TOTAL     ACCESS:     557057  HIT:     508358  MISS:      48699
cpu0_STLB LOAD      ACCESS:     474774  HIT:     439222  MISS:      35552
cpu0_STLB RFO       ACCESS:      82283  HIT:      69136  MISS:      13147
cpu0_STLB PREFETCH  ACCESS:          0  HIT:          0  MISS:          0
cpu0_STLB WRITEBACK ACCESS:          0  HIT:          0  MISS:          0
cpu0_STLB TRANSLATION ACCESS:          0  HIT:          0  MISS:          0
cpu0_STLB PREFETCH  REQUESTED:          0  ISSUED:          0  USEFUL:          0  USELESS:          0
cpu0_STLB AVERAGE MISS LATENCY: 41.6062 cycles
cpu0_L1D TOTAL     ACCESS:  430891168  HIT:  423516652  MISS:    7374516
cpu0_L1D LOAD      ACCESS:  152237804  HIT:  149986286  MISS:    2251518
cpu0_L1D RFO       ACCESS:  127589115  HIT:  125091552  MISS:    2497563
cpu0_L1D PREFETCH  ACCESS:  151015648  HIT:  148408234  MISS:    2607414
cpu0_L1D WRITEBACK ACCESS:          0  HIT:          0  MISS:          0
cpu0_L1D TRANSLATION ACCESS:      48601  HIT:      30580  MISS:      18021
cpu0_L1D PREFETCH  REQUESTED:  152469194  ISSUED:  152060884  USEFUL:    2078914  USELESS:     712259
cpu0_L1D AVERAGE MISS LATENCY: 125.607 cycles
cpu0_L2C TOTAL     ACCESS:   15637931  HIT:   12577309  MISS:    3060622
cpu0_L2C LOAD      ACCESS:    5928982  HIT:    4935853  MISS:     993129
cpu0_L2C RFO       ACCESS:    2494341  HIT:    1408683  MISS:    1085658
cpu0_L2C PREFETCH  ACCESS:    3706524  HIT:    2732327  MISS:     974197
cpu0_L2C WRITEBACK ACCESS:    3490063  HIT:    3484049  MISS:       6014
cpu0_L2C TRANSLATION ACCESS:      18021  HIT:      16397  MISS:       1624
cpu0_L2C PREFETCH  REQUESTED:    1046180  ISSUED:     929809  USEFUL:      41103  USELESS:      24544
cpu0_L2C AVERAGE MISS LATENCY: 281.06 cycles
LLC TOTAL     ACCESS:    4541262  HIT:    3321095  MISS:    1220167
LLC LOAD      ACCESS:     993112  HIT:     825625  MISS:     167487
LLC RFO       ACCESS:    1085639  HIT:     321992  MISS:     763647
LLC PREFETCH  ACCESS:     975631  HIT:     713367  MISS:     262264
LLC WRITEBACK ACCESS:    1485256  HIT:    1458518  MISS:      26738
LLC TRANSLATION ACCESS:       1624  HIT:       1593  MISS:         31
LLC PREFETCH  REQUESTED:          0  ISSUED:          0  USEFUL:          0  USELESS:          0
LLC AVERAGE MISS LATENCY: 637.76 cycles

DRAM Statistics
 CHANNEL 0
 RQ ROW_BUFFER_HIT:     193767  ROW_BUFFER_MISS:     999547
 DBUS AVG_CONGESTED_CYCLE:    3.92763
 WQ ROW_BUFFER_HIT:     135896  ROW_BUFFER_MISS:     841235  FULL:          0


CPU 0 Branch Prediction Accuracy: 89.3165% MPKI: 20.0625 Average ROB Occupancy at Mispredict: 16.3366
Branch type MPKI
BRANCH_DIRECT_JUMP: 0.001443
BRANCH_INDIRECT: 0.00018
BRANCH_CONDITIONAL: 20.0357
BRANCH_DIRECT_CALL: 0.002422
BRANCH_INDIRECT_CALL: 0.018167
BRANCH_RETURN: 0.004597

