
*** ChampSim Multicore Out-of-Order Simulator ***

Warmup Instructions: 1000000
Simulation Instructions: 1000000000
Number of CPUs: 1
Off-chip DRAM Size: 4 GiB Channels: 1 Width: 64-bit Data Rate: 3200 MT/s

VirtualMemory physical capacity: 8588881920 num_ppages: 2096895
VirtualMemory page size: 4096 log2_page_size: 12

CPU 0 runs tracer/pin/traces/spec2k17/641.leela_s-800B.champsimtrace.xz
Basic BTB sets: 1024 ways: 8 indirect buffer size: 4096 RAS size: 64
cpu0_L1D next line prefetcher
cpu0_L2C IP-based stride prefetcher
WARNING: The extended signature CACHE::prefetch_line(ip, base_addr, pf_addr, fill_this_level, prefetch_metadata) is deprecated.
WARNING: Use CACHE::prefetch_line(pf_addr, fill_this_level, prefetch_metadata) instead.

Warmup complete CPU 0 instructions: 1000004 cycles: 251734 (Simulation time: 0 hr 0 min 4 sec) 

Heartbeat CPU 0 instructions: 10000000 cycles: 8858642 heartbeat IPC: 1.12884 cumulative IPC: 1.04567 (Simulation time: 0 hr 0 min 53 sec) 
Heartbeat CPU 0 instructions: 20000002 cycles: 18091055 heartbeat IPC: 1.08314 cumulative IPC: 1.06506 (Simulation time: 0 hr 1 min 47 sec) 
Heartbeat CPU 0 instructions: 30000004 cycles: 27294434 heartbeat IPC: 1.08656 cumulative IPC: 1.07238 (Simulation time: 0 hr 2 min 41 sec) 
Heartbeat CPU 0 instructions: 40000000 cycles: 36435144 heartbeat IPC: 1.09401 cumulative IPC: 1.07784 (Simulation time: 0 hr 3 min 35 sec) 
Heartbeat CPU 0 instructions: 50000002 cycles: 45588913 heartbeat IPC: 1.09245 cumulative IPC: 1.08079 (Simulation time: 0 hr 4 min 28 sec) 
Heartbeat CPU 0 instructions: 60000000 cycles: 54768991 heartbeat IPC: 1.08932 cumulative IPC: 1.08223 (Simulation time: 0 hr 5 min 22 sec) 
Heartbeat CPU 0 instructions: 70000002 cycles: 63941617 heartbeat IPC: 1.0902 cumulative IPC: 1.08337 (Simulation time: 0 hr 6 min 18 sec) 
Heartbeat CPU 0 instructions: 80000001 cycles: 73081702 heartbeat IPC: 1.09408 cumulative IPC: 1.08472 (Simulation time: 0 hr 7 min 12 sec) 
Heartbeat CPU 0 instructions: 90000000 cycles: 82128125 heartbeat IPC: 1.10541 cumulative IPC: 1.087 (Simulation time: 0 hr 8 min 6 sec) 
Heartbeat CPU 0 instructions: 100000000 cycles: 91301744 heartbeat IPC: 1.09008 cumulative IPC: 1.08731 (Simulation time: 0 hr 9 min 1 sec) 
Heartbeat CPU 0 instructions: 110000000 cycles: 100390584 heartbeat IPC: 1.10025 cumulative IPC: 1.08849 (Simulation time: 0 hr 9 min 56 sec) 
Heartbeat CPU 0 instructions: 120000001 cycles: 117490638 heartbeat IPC: 0.584794 cumulative IPC: 1.01502 (Simulation time: 0 hr 11 min 36 sec) 
Heartbeat CPU 0 instructions: 130000000 cycles: 126686466 heartbeat IPC: 1.08745 cumulative IPC: 1.02029 (Simulation time: 0 hr 12 min 30 sec) 
Heartbeat CPU 0 instructions: 140000001 cycles: 135798429 heartbeat IPC: 1.09746 cumulative IPC: 1.02548 (Simulation time: 0 hr 13 min 24 sec) 
Heartbeat CPU 0 instructions: 150000004 cycles: 144829717 heartbeat IPC: 1.10726 cumulative IPC: 1.03059 (Simulation time: 0 hr 14 min 18 sec) 
Heartbeat CPU 0 instructions: 160000003 cycles: 153908312 heartbeat IPC: 1.10149 cumulative IPC: 1.03478 (Simulation time: 0 hr 15 min 12 sec) 
Heartbeat CPU 0 instructions: 170000002 cycles: 163160949 heartbeat IPC: 1.08077 cumulative IPC: 1.03739 (Simulation time: 0 hr 16 min 8 sec) 
Heartbeat CPU 0 instructions: 180000000 cycles: 172272507 heartbeat IPC: 1.09751 cumulative IPC: 1.04057 (Simulation time: 0 hr 17 min 1 sec) 
Heartbeat CPU 0 instructions: 190000000 cycles: 181372251 heartbeat IPC: 1.09893 cumulative IPC: 1.0435 (Simulation time: 0 hr 17 min 55 sec) 
Heartbeat CPU 0 instructions: 200000000 cycles: 190551516 heartbeat IPC: 1.08941 cumulative IPC: 1.04572 (Simulation time: 0 hr 18 min 50 sec) 
Heartbeat CPU 0 instructions: 210000003 cycles: 199565405 heartbeat IPC: 1.1094 cumulative IPC: 1.0486 (Simulation time: 0 hr 19 min 44 sec) 
Heartbeat CPU 0 instructions: 220000000 cycles: 208648847 heartbeat IPC: 1.1009 cumulative IPC: 1.05088 (Simulation time: 0 hr 20 min 38 sec) 
Heartbeat CPU 0 instructions: 230000003 cycles: 217795539 heartbeat IPC: 1.09329 cumulative IPC: 1.05266 (Simulation time: 0 hr 21 min 32 sec) 
Heartbeat CPU 0 instructions: 240000001 cycles: 226875819 heartbeat IPC: 1.10129 cumulative IPC: 1.05461 (Simulation time: 0 hr 22 min 27 sec) 
Heartbeat CPU 0 instructions: 250000001 cycles: 235960180 heartbeat IPC: 1.10079 cumulative IPC: 1.05639 (Simulation time: 0 hr 23 min 20 sec) 
Heartbeat CPU 0 instructions: 260000003 cycles: 244980653 heartbeat IPC: 1.10859 cumulative IPC: 1.05831 (Simulation time: 0 hr 24 min 15 sec) 
Heartbeat CPU 0 instructions: 270000003 cycles: 254027170 heartbeat IPC: 1.1054 cumulative IPC: 1.05999 (Simulation time: 0 hr 25 min 8 sec) 
Heartbeat CPU 0 instructions: 280000001 cycles: 263094381 heartbeat IPC: 1.10287 cumulative IPC: 1.06147 (Simulation time: 0 hr 26 min 3 sec) 
Heartbeat CPU 0 instructions: 290000002 cycles: 272066508 heartbeat IPC: 1.11456 cumulative IPC: 1.06322 (Simulation time: 0 hr 26 min 57 sec) 
Heartbeat CPU 0 instructions: 300000001 cycles: 281111023 heartbeat IPC: 1.10564 cumulative IPC: 1.06459 (Simulation time: 0 hr 27 min 51 sec) 
Heartbeat CPU 0 instructions: 310000001 cycles: 290139146 heartbeat IPC: 1.10765 cumulative IPC: 1.06593 (Simulation time: 0 hr 28 min 46 sec) 
Heartbeat CPU 0 instructions: 320000000 cycles: 299161159 heartbeat IPC: 1.1084 cumulative IPC: 1.06721 (Simulation time: 0 hr 29 min 41 sec) 
Heartbeat CPU 0 instructions: 330000000 cycles: 308174574 heartbeat IPC: 1.10946 cumulative IPC: 1.06845 (Simulation time: 0 hr 30 min 35 sec) 
Heartbeat CPU 0 instructions: 340000001 cycles: 317212185 heartbeat IPC: 1.10649 cumulative IPC: 1.06953 (Simulation time: 0 hr 31 min 30 sec) 
Heartbeat CPU 0 instructions: 350000003 cycles: 326281721 heartbeat IPC: 1.10259 cumulative IPC: 1.07045 (Simulation time: 0 hr 32 min 25 sec) 
Heartbeat CPU 0 instructions: 360000000 cycles: 335355359 heartbeat IPC: 1.10209 cumulative IPC: 1.07131 (Simulation time: 0 hr 33 min 20 sec) 
Heartbeat CPU 0 instructions: 370000002 cycles: 344316683 heartbeat IPC: 1.11591 cumulative IPC: 1.07247 (Simulation time: 0 hr 34 min 14 sec) 
Heartbeat CPU 0 instructions: 380000002 cycles: 353404606 heartbeat IPC: 1.10036 cumulative IPC: 1.07319 (Simulation time: 0 hr 35 min 9 sec) 
Heartbeat CPU 0 instructions: 390000000 cycles: 362478783 heartbeat IPC: 1.10203 cumulative IPC: 1.07391 (Simulation time: 0 hr 36 min 3 sec) 
Heartbeat CPU 0 instructions: 400000003 cycles: 371481023 heartbeat IPC: 1.11083 cumulative IPC: 1.07481 (Simulation time: 0 hr 36 min 57 sec) 
Heartbeat CPU 0 instructions: 410000002 cycles: 380500135 heartbeat IPC: 1.10876 cumulative IPC: 1.07561 (Simulation time: 0 hr 37 min 50 sec) 
Heartbeat CPU 0 instructions: 420000000 cycles: 389614170 heartbeat IPC: 1.09721 cumulative IPC: 1.07612 (Simulation time: 0 hr 38 min 44 sec) 
Heartbeat CPU 0 instructions: 430000000 cycles: 398736822 heartbeat IPC: 1.09617 cumulative IPC: 1.07658 (Simulation time: 0 hr 39 min 39 sec) 
Heartbeat CPU 0 instructions: 440000004 cycles: 407785643 heartbeat IPC: 1.10512 cumulative IPC: 1.07721 (Simulation time: 0 hr 40 min 34 sec) 
Heartbeat CPU 0 instructions: 450000003 cycles: 416849473 heartbeat IPC: 1.10329 cumulative IPC: 1.07778 (Simulation time: 0 hr 41 min 29 sec) 
Heartbeat CPU 0 instructions: 460000000 cycles: 425931305 heartbeat IPC: 1.1011 cumulative IPC: 1.07828 (Simulation time: 0 hr 42 min 23 sec) 
Heartbeat CPU 0 instructions: 470000002 cycles: 435063418 heartbeat IPC: 1.09504 cumulative IPC: 1.07863 (Simulation time: 0 hr 43 min 17 sec) 
Heartbeat CPU 0 instructions: 480000000 cycles: 444150415 heartbeat IPC: 1.10047 cumulative IPC: 1.07908 (Simulation time: 0 hr 44 min 10 sec) 
Heartbeat CPU 0 instructions: 490000000 cycles: 453142202 heartbeat IPC: 1.11213 cumulative IPC: 1.07973 (Simulation time: 0 hr 45 min 2 sec) 
Heartbeat CPU 0 instructions: 500000002 cycles: 462099069 heartbeat IPC: 1.11646 cumulative IPC: 1.08044 (Simulation time: 0 hr 45 min 55 sec) 
Heartbeat CPU 0 instructions: 510000004 cycles: 471167499 heartbeat IPC: 1.10273 cumulative IPC: 1.08087 (Simulation time: 0 hr 46 min 47 sec) 
Heartbeat CPU 0 instructions: 520000000 cycles: 480269538 heartbeat IPC: 1.09865 cumulative IPC: 1.08121 (Simulation time: 0 hr 47 min 37 sec) 
Heartbeat CPU 0 instructions: 530000002 cycles: 489342566 heartbeat IPC: 1.10217 cumulative IPC: 1.0816 (Simulation time: 0 hr 48 min 29 sec) 
Heartbeat CPU 0 instructions: 540000001 cycles: 498400171 heartbeat IPC: 1.10404 cumulative IPC: 1.08201 (Simulation time: 0 hr 49 min 21 sec) 
Heartbeat CPU 0 instructions: 550000001 cycles: 507430354 heartbeat IPC: 1.1074 cumulative IPC: 1.08246 (Simulation time: 0 hr 50 min 13 sec) 
Heartbeat CPU 0 instructions: 560000002 cycles: 516510480 heartbeat IPC: 1.10131 cumulative IPC: 1.08279 (Simulation time: 0 hr 51 min 5 sec) 
Heartbeat CPU 0 instructions: 570000004 cycles: 525567275 heartbeat IPC: 1.10414 cumulative IPC: 1.08316 (Simulation time: 0 hr 51 min 56 sec) 
Heartbeat CPU 0 instructions: 580000003 cycles: 534549466 heartbeat IPC: 1.11331 cumulative IPC: 1.08367 (Simulation time: 0 hr 52 min 48 sec) 
Heartbeat CPU 0 instructions: 590000001 cycles: 543549900 heartbeat IPC: 1.11106 cumulative IPC: 1.08412 (Simulation time: 0 hr 53 min 41 sec) 
Heartbeat CPU 0 instructions: 600000000 cycles: 552549753 heartbeat IPC: 1.11113 cumulative IPC: 1.08456 (Simulation time: 0 hr 54 min 33 sec) 
Heartbeat CPU 0 instructions: 610000002 cycles: 561580843 heartbeat IPC: 1.10729 cumulative IPC: 1.08493 (Simulation time: 0 hr 55 min 24 sec) 
Heartbeat CPU 0 instructions: 620000004 cycles: 570660789 heartbeat IPC: 1.10133 cumulative IPC: 1.08519 (Simulation time: 0 hr 56 min 16 sec) 
Heartbeat CPU 0 instructions: 630000003 cycles: 579745086 heartbeat IPC: 1.1008 cumulative IPC: 1.08543 (Simulation time: 0 hr 57 min 8 sec) 
Heartbeat CPU 0 instructions: 640000002 cycles: 588850137 heartbeat IPC: 1.09829 cumulative IPC: 1.08563 (Simulation time: 0 hr 58 min 0 sec) 
Heartbeat CPU 0 instructions: 650000001 cycles: 597904788 heartbeat IPC: 1.1044 cumulative IPC: 1.08591 (Simulation time: 0 hr 58 min 54 sec) 
Heartbeat CPU 0 instructions: 660000002 cycles: 606920160 heartbeat IPC: 1.10922 cumulative IPC: 1.08626 (Simulation time: 0 hr 59 min 46 sec) 
Heartbeat CPU 0 instructions: 670000000 cycles: 615979301 heartbeat IPC: 1.10386 cumulative IPC: 1.08652 (Simulation time: 1 hr 0 min 39 sec) 
Heartbeat CPU 0 instructions: 680000004 cycles: 625055263 heartbeat IPC: 1.10181 cumulative IPC: 1.08674 (Simulation time: 1 hr 1 min 32 sec) 
Heartbeat CPU 0 instructions: 690000000 cycles: 634076749 heartbeat IPC: 1.10846 cumulative IPC: 1.08705 (Simulation time: 1 hr 2 min 23 sec) 
Heartbeat CPU 0 instructions: 700000001 cycles: 643124905 heartbeat IPC: 1.1052 cumulative IPC: 1.08731 (Simulation time: 1 hr 3 min 15 sec) 
Heartbeat CPU 0 instructions: 710000002 cycles: 652114588 heartbeat IPC: 1.11239 cumulative IPC: 1.08765 (Simulation time: 1 hr 4 min 6 sec) 
Heartbeat CPU 0 instructions: 720000000 cycles: 661205821 heartbeat IPC: 1.09996 cumulative IPC: 1.08782 (Simulation time: 1 hr 4 min 58 sec) 
Heartbeat CPU 0 instructions: 730000000 cycles: 670274999 heartbeat IPC: 1.10264 cumulative IPC: 1.08802 (Simulation time: 1 hr 5 min 49 sec) 
Heartbeat CPU 0 instructions: 740000001 cycles: 679321340 heartbeat IPC: 1.10542 cumulative IPC: 1.08825 (Simulation time: 1 hr 6 min 41 sec) 
Heartbeat CPU 0 instructions: 750000000 cycles: 688390115 heartbeat IPC: 1.10268 cumulative IPC: 1.08844 (Simulation time: 1 hr 7 min 31 sec) 
Heartbeat CPU 0 instructions: 760000002 cycles: 697444109 heartbeat IPC: 1.10449 cumulative IPC: 1.08865 (Simulation time: 1 hr 8 min 22 sec) 
Heartbeat CPU 0 instructions: 770000000 cycles: 706464909 heartbeat IPC: 1.10855 cumulative IPC: 1.08891 (Simulation time: 1 hr 9 min 12 sec) 
Heartbeat CPU 0 instructions: 780000002 cycles: 715562816 heartbeat IPC: 1.09915 cumulative IPC: 1.08904 (Simulation time: 1 hr 10 min 2 sec) 
Heartbeat CPU 0 instructions: 790000000 cycles: 724565224 heartbeat IPC: 1.11081 cumulative IPC: 1.08931 (Simulation time: 1 hr 10 min 52 sec) 
Heartbeat CPU 0 instructions: 800000000 cycles: 733613527 heartbeat IPC: 1.10518 cumulative IPC: 1.0895 (Simulation time: 1 hr 11 min 42 sec) 
Heartbeat CPU 0 instructions: 810000000 cycles: 742640654 heartbeat IPC: 1.10777 cumulative IPC: 1.08973 (Simulation time: 1 hr 12 min 30 sec) 
Heartbeat CPU 0 instructions: 820000000 cycles: 751716553 heartbeat IPC: 1.10182 cumulative IPC: 1.08987 (Simulation time: 1 hr 13 min 19 sec) 
Heartbeat CPU 0 instructions: 830000003 cycles: 760750811 heartbeat IPC: 1.1069 cumulative IPC: 1.09007 (Simulation time: 1 hr 14 min 7 sec) 
Heartbeat CPU 0 instructions: 840000002 cycles: 769751668 heartbeat IPC: 1.11101 cumulative IPC: 1.09032 (Simulation time: 1 hr 14 min 56 sec) 
Heartbeat CPU 0 instructions: 850000004 cycles: 778806618 heartbeat IPC: 1.10437 cumulative IPC: 1.09048 (Simulation time: 1 hr 15 min 44 sec) 
Heartbeat CPU 0 instructions: 860000000 cycles: 787842891 heartbeat IPC: 1.10665 cumulative IPC: 1.09067 (Simulation time: 1 hr 16 min 33 sec) 
Heartbeat CPU 0 instructions: 870000004 cycles: 796905908 heartbeat IPC: 1.10339 cumulative IPC: 1.09081 (Simulation time: 1 hr 17 min 21 sec) 
Heartbeat CPU 0 instructions: 880000002 cycles: 806002297 heartbeat IPC: 1.09934 cumulative IPC: 1.09091 (Simulation time: 1 hr 18 min 9 sec) 
Heartbeat CPU 0 instructions: 890000003 cycles: 814990741 heartbeat IPC: 1.11254 cumulative IPC: 1.09115 (Simulation time: 1 hr 18 min 57 sec) 
Heartbeat CPU 0 instructions: 900000000 cycles: 823949553 heartbeat IPC: 1.11622 cumulative IPC: 1.09142 (Simulation time: 1 hr 19 min 44 sec) 
Heartbeat CPU 0 instructions: 910000001 cycles: 832882924 heartbeat IPC: 1.1194 cumulative IPC: 1.09172 (Simulation time: 1 hr 20 min 31 sec) 
Heartbeat CPU 0 instructions: 920000002 cycles: 841889923 heartbeat IPC: 1.11025 cumulative IPC: 1.09192 (Simulation time: 1 hr 21 min 17 sec) 
Heartbeat CPU 0 instructions: 930000002 cycles: 850987128 heartbeat IPC: 1.09924 cumulative IPC: 1.092 (Simulation time: 1 hr 22 min 3 sec) 
Heartbeat CPU 0 instructions: 940000001 cycles: 859936519 heartbeat IPC: 1.11739 cumulative IPC: 1.09226 (Simulation time: 1 hr 22 min 50 sec) 
Heartbeat CPU 0 instructions: 950000000 cycles: 868995749 heartbeat IPC: 1.10385 cumulative IPC: 1.09238 (Simulation time: 1 hr 23 min 36 sec) 
Heartbeat CPU 0 instructions: 960000001 cycles: 887184010 heartbeat IPC: 0.549805 cumulative IPC: 1.08126 (Simulation time: 1 hr 25 min 4 sec) 
Heartbeat CPU 0 instructions: 970000003 cycles: 896233383 heartbeat IPC: 1.10505 cumulative IPC: 1.0815 (Simulation time: 1 hr 25 min 49 sec) 
Heartbeat CPU 0 instructions: 980000001 cycles: 905188248 heartbeat IPC: 1.11671 cumulative IPC: 1.08184 (Simulation time: 1 hr 26 min 33 sec) 
Heartbeat CPU 0 instructions: 990000001 cycles: 914212522 heartbeat IPC: 1.10812 cumulative IPC: 1.0821 (Simulation time: 1 hr 27 min 17 sec) 
Heartbeat CPU 0 instructions: 1000000001 cycles: 923287052 heartbeat IPC: 1.10199 cumulative IPC: 1.0823 (Simulation time: 1 hr 28 min 2 sec) 
Finished CPU 0 instructions: 1000000001 cycles: 923942259 cumulative IPC: 1.08232 (Simulation time: 1 hr 28 min 7 sec) 

ChampSim completed all CPUs

Region of Interest Statistics

CPU 0 cumulative IPC: 1.08232 instructions: 1000000001 cycles: 923942259
cpu0_DTLB TOTAL     ACCESS:  191240270  HIT:  190836962  MISS:     403308
cpu0_DTLB LOAD      ACCESS:  132629531  HIT:  132239119  MISS:     390412
cpu0_DTLB RFO       ACCESS:   58610739  HIT:   58597843  MISS:      12896
cpu0_DTLB PREFETCH  ACCESS:          0  HIT:          0  MISS:          0
cpu0_DTLB WRITEBACK ACCESS:          0  HIT:          0  MISS:          0
cpu0_DTLB TRANSLATION ACCESS:          0  HIT:          0  MISS:          0
cpu0_DTLB PREFETCH  REQUESTED:          0  ISSUED:          0  USEFUL:          0  USELESS:          0
cpu0_DTLB AVERAGE MISS LATENCY: 9.81669 cycles
cpu0_ITLB TOTAL     ACCESS:   99670186  HIT:   99670107  MISS:         79
cpu0_ITLB LOAD      ACCESS:   99670186  HIT:   99670107  MISS:         79
cpu0_ITLB RFO       ACCESS:          0  HIT:          0  MISS:          0
cpu0_ITLB PREFETCH  ACCESS:          0  HIT:          0  MISS:          0
cpu0_ITLB WRITEBACK ACCESS:          0  HIT:          0  MISS:          0
cpu0_ITLB TRANSLATION ACCESS:          0  HIT:          0  MISS:          0
cpu0_ITLB PREFETCH  REQUESTED:          0  ISSUED:          0  USEFUL:          0  USELESS:          0
cpu0_ITLB AVERAGE MISS LATENCY: 130.329 cycles
cpu0_L1I TOTAL     ACCESS:   96488486  HIT:   96465432  MISS:      23054
cpu0_L1I LOAD      ACCESS:   96488486  HIT:   96465432  MISS:      23054
cpu0_L1I RFO       ACCESS:          0  HIT:          0  MISS:          0
cpu0_L1I PREFETCH  ACCESS:          0  HIT:          0  MISS:          0
cpu0_L1I WRITEBACK ACCESS:          0  HIT:          0  MISS:          0
cpu0_L1I TRANSLATION ACCESS:          0  HIT:          0  MISS:          0
cpu0_L1I PREFETCH  REQUESTED:          0  ISSUED:          0  USEFUL:          0  USELESS:          0
cpu0_L1I AVERAGE MISS LATENCY: 43.0833 cycles
cpu0_STLB TOTAL     ACCESS:     403387  HIT:     401427  MISS:       1960
cpu0_STLB LOAD      ACCESS:     390491  HIT:     389249  MISS:       1242
cpu0_STLB RFO       ACCESS:      12896  HIT:      12178  MISS:        718
cpu0_STLB PREFETCH  ACCESS:          0  HIT:          0  MISS:          0
cpu0_STLB WRITEBACK ACCESS:          0  HIT:          0  MISS:          0
cpu0_STLB TRANSLATION ACCESS:          0  HIT:          0  MISS:          0
cpu0_STLB PREFETCH  REQUESTED:          0  ISSUED:          0  USEFUL:          0  USELESS:          0
cpu0_STLB AVERAGE MISS LATENCY: 172.914 cycles
cpu0_L1D TOTAL     ACCESS:  435327750  HIT:  431119702  MISS:    4208048
cpu0_L1D LOAD      ACCESS:  161713580  HIT:  159457301  MISS:    2256279
cpu0_L1D RFO       ACCESS:  114005385  HIT:  113666857  MISS:     338528
cpu0_L1D PREFETCH  ACCESS:  159606829  HIT:  157994279  MISS:    1612550
cpu0_L1D WRITEBACK ACCESS:          0  HIT:          0  MISS:          0
cpu0_L1D TRANSLATION ACCESS:       1956  HIT:       1265  MISS:        691
cpu0_L1D PREFETCH  REQUESTED:  161744106  ISSUED:  160349398  USEFUL:    1012948  USELESS:     658658
cpu0_L1D AVERAGE MISS LATENCY: 24.0822 cycles
cpu0_L2C TOTAL     ACCESS:    6921556  HIT:    6560273  MISS:     361283
cpu0_L2C LOAD      ACCESS:    2222847  HIT:    2102927  MISS:     119920
cpu0_L2C RFO       ACCESS:     335898  HIT:     266171  MISS:      69727
cpu0_L2C PREFETCH  ACCESS:    3738699  HIT:    3568046  MISS:     170653
cpu0_L2C WRITEBACK ACCESS:     623421  HIT:     622792  MISS:        629
cpu0_L2C TRANSLATION ACCESS:        691  HIT:        337  MISS:        354
cpu0_L2C PREFETCH  REQUESTED:    2107548  ISSUED:    2076655  USEFUL:       7862  USELESS:       3470
cpu0_L2C AVERAGE MISS LATENCY: 200.997 cycles
LLC TOTAL     ACCESS:     452471  HIT:     318390  MISS:     134081
LLC LOAD      ACCESS:     119920  HIT:     104010  MISS:      15910
LLC RFO       ACCESS:      69712  HIT:      12398  MISS:      57314
LLC PREFETCH  ACCESS:     170961  HIT:     111459  MISS:      59502
LLC WRITEBACK ACCESS:      91524  HIT:      90175  MISS:       1349
LLC TRANSLATION ACCESS:        354  HIT:        348  MISS:          6
LLC PREFETCH  REQUESTED:          0  ISSUED:          0  USEFUL:          0  USELESS:          0
LLC AVERAGE MISS LATENCY: 470.901 cycles

DRAM Statistics
 CHANNEL 0
 RQ ROW_BUFFER_HIT:       8631  ROW_BUFFER_MISS:     123964
 DBUS AVG_CONGESTED_CYCLE:    3.94361
 WQ ROW_BUFFER_HIT:       1195  ROW_BUFFER_MISS:      44888  FULL:          0


CPU 0 Branch Prediction Accuracy: 88.2322% MPKI: 19.2457 Average ROB Occupancy at Mispredict: 18.8282
Branch type MPKI
BRANCH_DIRECT_JUMP: 0.00012
BRANCH_INDIRECT: 0.000764
BRANCH_CONDITIONAL: 19.2444
BRANCH_DIRECT_CALL: 0.000182
BRANCH_INDIRECT_CALL: 2.8e-05
BRANCH_RETURN: 0.00017

