
*** ChampSim Multicore Out-of-Order Simulator ***

Warmup Instructions: 200000000
Simulation Instructions: 1000000000
Number of CPUs: 1
Off-chip DRAM Size: 4 GiB Channels: 1 Width: 64-bit Data Rate: 3200 MT/s

VirtualMemory physical capacity: 8588881920 num_ppages: 2096895
VirtualMemory page size: 4096 log2_page_size: 12

CPU 0 runs tracer/pin/traces/xs-100hashxl-2.champsim.xz
Basic BTB sets: 1024 ways: 8 indirect buffer size: 4096 RAS size: 64
cpu0_L1D next line prefetcher
cpu0_L2C IP-based stride prefetcher
WARNING: The extended signature CACHE::prefetch_line(ip, base_addr, pf_addr, fill_this_level, prefetch_metadata) is deprecated.
WARNING: Use CACHE::prefetch_line(pf_addr, fill_this_level, prefetch_metadata) instead.
Heartbeat CPU 0 instructions: 10000003 cycles: 2500073 heartbeat IPC: 3.99988 cumulative IPC: 3.99988 (Simulation time: 0 hr 35 min 21 sec) 
Heartbeat CPU 0 instructions: 20000003 cycles: 5000073 heartbeat IPC: 4 cumulative IPC: 3.99994 (Simulation time: 0 hr 35 min 52 sec) 
Heartbeat CPU 0 instructions: 30000003 cycles: 7500073 heartbeat IPC: 4 cumulative IPC: 3.99996 (Simulation time: 0 hr 36 min 23 sec) 
Heartbeat CPU 0 instructions: 40000003 cycles: 10000073 heartbeat IPC: 4 cumulative IPC: 3.99997 (Simulation time: 0 hr 36 min 55 sec) 
Heartbeat CPU 0 instructions: 50000003 cycles: 12500073 heartbeat IPC: 4 cumulative IPC: 3.99998 (Simulation time: 0 hr 37 min 24 sec) 
Heartbeat CPU 0 instructions: 60000003 cycles: 15000073 heartbeat IPC: 4 cumulative IPC: 3.99998 (Simulation time: 0 hr 37 min 49 sec) 
Heartbeat CPU 0 instructions: 70000003 cycles: 17500073 heartbeat IPC: 4 cumulative IPC: 3.99998 (Simulation time: 0 hr 38 min 18 sec) 
Heartbeat CPU 0 instructions: 80000003 cycles: 20000073 heartbeat IPC: 4 cumulative IPC: 3.99999 (Simulation time: 0 hr 38 min 47 sec) 
Heartbeat CPU 0 instructions: 90000003 cycles: 22500073 heartbeat IPC: 4 cumulative IPC: 3.99999 (Simulation time: 0 hr 39 min 15 sec) 
Heartbeat CPU 0 instructions: 100000003 cycles: 25000073 heartbeat IPC: 4 cumulative IPC: 3.99999 (Simulation time: 0 hr 39 min 44 sec) 
Heartbeat CPU 0 instructions: 110000003 cycles: 27500073 heartbeat IPC: 4 cumulative IPC: 3.99999 (Simulation time: 0 hr 40 min 14 sec) 
Heartbeat CPU 0 instructions: 120000003 cycles: 30000073 heartbeat IPC: 4 cumulative IPC: 3.99999 (Simulation time: 0 hr 40 min 46 sec) 
Heartbeat CPU 0 instructions: 130000003 cycles: 32500073 heartbeat IPC: 4 cumulative IPC: 3.99999 (Simulation time: 0 hr 41 min 19 sec) 
Heartbeat CPU 0 instructions: 140000003 cycles: 35000073 heartbeat IPC: 4 cumulative IPC: 3.99999 (Simulation time: 0 hr 41 min 53 sec) 
Heartbeat CPU 0 instructions: 150000003 cycles: 37500073 heartbeat IPC: 4 cumulative IPC: 3.99999 (Simulation time: 0 hr 42 min 25 sec) 
Heartbeat CPU 0 instructions: 160000003 cycles: 40000073 heartbeat IPC: 4 cumulative IPC: 3.99999 (Simulation time: 0 hr 42 min 58 sec) 
Heartbeat CPU 0 instructions: 170000003 cycles: 42500073 heartbeat IPC: 4 cumulative IPC: 3.99999 (Simulation time: 0 hr 43 min 31 sec) 
Heartbeat CPU 0 instructions: 180000003 cycles: 45000073 heartbeat IPC: 4 cumulative IPC: 3.99999 (Simulation time: 0 hr 44 min 5 sec) 
Heartbeat CPU 0 instructions: 190000003 cycles: 47500073 heartbeat IPC: 4 cumulative IPC: 3.99999 (Simulation time: 0 hr 44 min 38 sec) 
Heartbeat CPU 0 instructions: 200000003 cycles: 50000073 heartbeat IPC: 4 cumulative IPC: 3.99999 (Simulation time: 0 hr 45 min 11 sec) 

Warmup complete CPU 0 instructions: 200000003 cycles: 50000073 (Simulation time: 0 hr 45 min 11 sec) 

Heartbeat CPU 0 instructions: 210000003 cycles: 118949662 heartbeat IPC: 0.145033 cumulative IPC: 0.145033 (Simulation time: 0 hr 47 min 36 sec) 
Heartbeat CPU 0 instructions: 220000000 cycles: 187666924 heartbeat IPC: 0.145524 cumulative IPC: 0.145278 (Simulation time: 0 hr 50 min 4 sec) 
Heartbeat CPU 0 instructions: 230000002 cycles: 256376937 heartbeat IPC: 0.145539 cumulative IPC: 0.145365 (Simulation time: 0 hr 52 min 26 sec) 
Heartbeat CPU 0 instructions: 240000000 cycles: 325445081 heartbeat IPC: 0.144785 cumulative IPC: 0.14522 (Simulation time: 0 hr 54 min 55 sec) 
Heartbeat CPU 0 instructions: 250000001 cycles: 393762170 heartbeat IPC: 0.146376 cumulative IPC: 0.145449 (Simulation time: 0 hr 57 min 19 sec) 
Heartbeat CPU 0 instructions: 260000002 cycles: 462009590 heartbeat IPC: 0.146526 cumulative IPC: 0.145628 (Simulation time: 0 hr 59 min 35 sec) 
Heartbeat CPU 0 instructions: 270000001 cycles: 529965433 heartbeat IPC: 0.147154 cumulative IPC: 0.145844 (Simulation time: 1 hr 2 min 11 sec) 
Heartbeat CPU 0 instructions: 280000000 cycles: 597927756 heartbeat IPC: 0.14714 cumulative IPC: 0.146005 (Simulation time: 1 hr 4 min 31 sec) 
Heartbeat CPU 0 instructions: 290000000 cycles: 666303218 heartbeat IPC: 0.146251 cumulative IPC: 0.146032 (Simulation time: 1 hr 7 min 12 sec) 
Heartbeat CPU 0 instructions: 300000003 cycles: 734050082 heartbeat IPC: 0.147608 cumulative IPC: 0.146188 (Simulation time: 1 hr 10 min 9 sec) 
Heartbeat CPU 0 instructions: 310000000 cycles: 802108431 heartbeat IPC: 0.146933 cumulative IPC: 0.146256 (Simulation time: 1 hr 12 min 46 sec) 
Heartbeat CPU 0 instructions: 320000000 cycles: 869184494 heartbeat IPC: 0.149084 cumulative IPC: 0.146487 (Simulation time: 1 hr 15 min 11 sec) 
Heartbeat CPU 0 instructions: 330000000 cycles: 937306337 heartbeat IPC: 0.146796 cumulative IPC: 0.146511 (Simulation time: 1 hr 17 min 31 sec) 
Heartbeat CPU 0 instructions: 340000002 cycles: 1004835192 heartbeat IPC: 0.148085 cumulative IPC: 0.146622 (Simulation time: 1 hr 19 min 40 sec) 
Heartbeat CPU 0 instructions: 350000000 cycles: 1072955400 heartbeat IPC: 0.146799 cumulative IPC: 0.146634 (Simulation time: 1 hr 22 min 11 sec) 
Heartbeat CPU 0 instructions: 360000003 cycles: 1140247492 heartbeat IPC: 0.148606 cumulative IPC: 0.146756 (Simulation time: 1 hr 24 min 31 sec) 
Heartbeat CPU 0 instructions: 370000000 cycles: 1207528241 heartbeat IPC: 0.148631 cumulative IPC: 0.146865 (Simulation time: 1 hr 26 min 46 sec) 
Heartbeat CPU 0 instructions: 380000000 cycles: 1275496521 heartbeat IPC: 0.147127 cumulative IPC: 0.146879 (Simulation time: 1 hr 29 min 36 sec) 
Heartbeat CPU 0 instructions: 390000004 cycles: 1342738501 heartbeat IPC: 0.148717 cumulative IPC: 0.146975 (Simulation time: 1 hr 32 min 27 sec) 
Heartbeat CPU 0 instructions: 400000000 cycles: 1410048562 heartbeat IPC: 0.148566 cumulative IPC: 0.147054 (Simulation time: 1 hr 34 min 51 sec) 
Heartbeat CPU 0 instructions: 410000000 cycles: 1477878635 heartbeat IPC: 0.147427 cumulative IPC: 0.147071 (Simulation time: 1 hr 37 min 6 sec) 
Heartbeat CPU 0 instructions: 420000004 cycles: 1545423473 heartbeat IPC: 0.14805 cumulative IPC: 0.147116 (Simulation time: 1 hr 39 min 49 sec) 
Heartbeat CPU 0 instructions: 430000000 cycles: 1613149262 heartbeat IPC: 0.147654 cumulative IPC: 0.147139 (Simulation time: 1 hr 42 min 27 sec) 
Heartbeat CPU 0 instructions: 440000002 cycles: 1680668562 heartbeat IPC: 0.148106 cumulative IPC: 0.147179 (Simulation time: 1 hr 45 min 11 sec) 
Heartbeat CPU 0 instructions: 450000004 cycles: 1747886025 heartbeat IPC: 0.148771 cumulative IPC: 0.147242 (Simulation time: 1 hr 48 min 1 sec) 
Heartbeat CPU 0 instructions: 460000003 cycles: 1815350014 heartbeat IPC: 0.148227 cumulative IPC: 0.14728 (Simulation time: 1 hr 50 min 46 sec) 
Heartbeat CPU 0 instructions: 470000003 cycles: 1882745494 heartbeat IPC: 0.148378 cumulative IPC: 0.14732 (Simulation time: 1 hr 53 min 24 sec) 
Heartbeat CPU 0 instructions: 480000001 cycles: 1950311921 heartbeat IPC: 0.148002 cumulative IPC: 0.147344 (Simulation time: 1 hr 56 min 16 sec) 
Heartbeat CPU 0 instructions: 490000000 cycles: 2017494033 heartbeat IPC: 0.148849 cumulative IPC: 0.147396 (Simulation time: 1 hr 59 min 7 sec) 
Heartbeat CPU 0 instructions: 500000003 cycles: 2084771131 heartbeat IPC: 0.148639 cumulative IPC: 0.147437 (Simulation time: 2 hr 1 min 59 sec) 
Heartbeat CPU 0 instructions: 510000004 cycles: 2151832599 heartbeat IPC: 0.149117 cumulative IPC: 0.14749 (Simulation time: 2 hr 4 min 42 sec) 
Heartbeat CPU 0 instructions: 520000000 cycles: 2219241406 heartbeat IPC: 0.148349 cumulative IPC: 0.147517 (Simulation time: 2 hr 7 min 25 sec) 
Heartbeat CPU 0 instructions: 530000004 cycles: 2286590002 heartbeat IPC: 0.148481 cumulative IPC: 0.147546 (Simulation time: 2 hr 10 min 14 sec) 
Heartbeat CPU 0 instructions: 540000000 cycles: 2353979408 heartbeat IPC: 0.148391 cumulative IPC: 0.147571 (Simulation time: 2 hr 12 min 48 sec) 
Heartbeat CPU 0 instructions: 550000002 cycles: 2421521834 heartbeat IPC: 0.148055 cumulative IPC: 0.147585 (Simulation time: 2 hr 14 min 50 sec) 
Heartbeat CPU 0 instructions: 560000000 cycles: 2488600808 heartbeat IPC: 0.149078 cumulative IPC: 0.147626 (Simulation time: 2 hr 17 min 1 sec) 
Heartbeat CPU 0 instructions: 570000000 cycles: 2555772129 heartbeat IPC: 0.148873 cumulative IPC: 0.147659 (Simulation time: 2 hr 19 min 10 sec) 
Heartbeat CPU 0 instructions: 580000001 cycles: 2623323547 heartbeat IPC: 0.148035 cumulative IPC: 0.147669 (Simulation time: 2 hr 21 min 20 sec) 
Heartbeat CPU 0 instructions: 590000002 cycles: 2690455098 heartbeat IPC: 0.148961 cumulative IPC: 0.147702 (Simulation time: 2 hr 23 min 22 sec) 
Heartbeat CPU 0 instructions: 600000004 cycles: 2757967263 heartbeat IPC: 0.148121 cumulative IPC: 0.147712 (Simulation time: 2 hr 25 min 24 sec) 
Heartbeat CPU 0 instructions: 610000001 cycles: 2825072286 heartbeat IPC: 0.14902 cumulative IPC: 0.147744 (Simulation time: 2 hr 27 min 27 sec) 
Heartbeat CPU 0 instructions: 620000001 cycles: 2892424421 heartbeat IPC: 0.148473 cumulative IPC: 0.147761 (Simulation time: 2 hr 29 min 31 sec) 
Heartbeat CPU 0 instructions: 630000000 cycles: 2960176496 heartbeat IPC: 0.147597 cumulative IPC: 0.147757 (Simulation time: 2 hr 31 min 34 sec) 
Heartbeat CPU 0 instructions: 640000004 cycles: 3027670652 heartbeat IPC: 0.148161 cumulative IPC: 0.147767 (Simulation time: 2 hr 33 min 35 sec) 
Heartbeat CPU 0 instructions: 650000004 cycles: 3094899729 heartbeat IPC: 0.148745 cumulative IPC: 0.147788 (Simulation time: 2 hr 35 min 36 sec) 
Heartbeat CPU 0 instructions: 660000001 cycles: 3161626191 heartbeat IPC: 0.149866 cumulative IPC: 0.147833 (Simulation time: 2 hr 37 min 37 sec) 
Heartbeat CPU 0 instructions: 670000002 cycles: 3228842607 heartbeat IPC: 0.148773 cumulative IPC: 0.147853 (Simulation time: 2 hr 39 min 40 sec) 
Heartbeat CPU 0 instructions: 680000000 cycles: 3296374944 heartbeat IPC: 0.148077 cumulative IPC: 0.147857 (Simulation time: 2 hr 41 min 42 sec) 
Heartbeat CPU 0 instructions: 690000002 cycles: 3363605099 heartbeat IPC: 0.148743 cumulative IPC: 0.147875 (Simulation time: 2 hr 43 min 44 sec) 
Heartbeat CPU 0 instructions: 700000000 cycles: 3431072317 heartbeat IPC: 0.14822 cumulative IPC: 0.147882 (Simulation time: 2 hr 45 min 54 sec) 
Heartbeat CPU 0 instructions: 710000002 cycles: 3498328803 heartbeat IPC: 0.148685 cumulative IPC: 0.147898 (Simulation time: 2 hr 47 min 58 sec) 
Heartbeat CPU 0 instructions: 720000001 cycles: 3565521966 heartbeat IPC: 0.148825 cumulative IPC: 0.147915 (Simulation time: 2 hr 50 min 1 sec) 
Heartbeat CPU 0 instructions: 730000000 cycles: 3633047042 heartbeat IPC: 0.148093 cumulative IPC: 0.147919 (Simulation time: 2 hr 52 min 3 sec) 
Heartbeat CPU 0 instructions: 740000000 cycles: 3700091299 heartbeat IPC: 0.149155 cumulative IPC: 0.147941 (Simulation time: 2 hr 54 min 4 sec) 
Heartbeat CPU 0 instructions: 750000000 cycles: 3766911671 heartbeat IPC: 0.149655 cumulative IPC: 0.147972 (Simulation time: 2 hr 56 min 3 sec) 
Heartbeat CPU 0 instructions: 760000002 cycles: 3834276233 heartbeat IPC: 0.148446 cumulative IPC: 0.147981 (Simulation time: 2 hr 58 min 4 sec) 
Heartbeat CPU 0 instructions: 770000004 cycles: 3901641515 heartbeat IPC: 0.148444 cumulative IPC: 0.147989 (Simulation time: 3 hr 0 min 4 sec) 
Heartbeat CPU 0 instructions: 780000000 cycles: 3969111773 heartbeat IPC: 0.148213 cumulative IPC: 0.147993 (Simulation time: 3 hr 2 min 6 sec) 
Heartbeat CPU 0 instructions: 790000001 cycles: 4036305494 heartbeat IPC: 0.148823 cumulative IPC: 0.148007 (Simulation time: 3 hr 4 min 8 sec) 
Heartbeat CPU 0 instructions: 800000002 cycles: 4103589237 heartbeat IPC: 0.148624 cumulative IPC: 0.148017 (Simulation time: 3 hr 6 min 9 sec) 
Heartbeat CPU 0 instructions: 810000002 cycles: 4170667956 heartbeat IPC: 0.149079 cumulative IPC: 0.148034 (Simulation time: 3 hr 8 min 10 sec) 
Heartbeat CPU 0 instructions: 820000000 cycles: 4237822558 heartbeat IPC: 0.14891 cumulative IPC: 0.148048 (Simulation time: 3 hr 10 min 12 sec) 
Heartbeat CPU 0 instructions: 830000000 cycles: 4304711731 heartbeat IPC: 0.149501 cumulative IPC: 0.148071 (Simulation time: 3 hr 12 min 13 sec) 
Heartbeat CPU 0 instructions: 840000001 cycles: 4371901345 heartbeat IPC: 0.148833 cumulative IPC: 0.148083 (Simulation time: 3 hr 14 min 15 sec) 
Heartbeat CPU 0 instructions: 850000004 cycles: 4438691412 heartbeat IPC: 0.149723 cumulative IPC: 0.148108 (Simulation time: 3 hr 16 min 17 sec) 
Heartbeat CPU 0 instructions: 860000002 cycles: 4505714528 heartbeat IPC: 0.149202 cumulative IPC: 0.148124 (Simulation time: 3 hr 18 min 18 sec) 
Heartbeat CPU 0 instructions: 870000000 cycles: 4572368052 heartbeat IPC: 0.15003 cumulative IPC: 0.148152 (Simulation time: 3 hr 20 min 19 sec) 
Heartbeat CPU 0 instructions: 880000002 cycles: 4639315058 heartbeat IPC: 0.149372 cumulative IPC: 0.14817 (Simulation time: 3 hr 22 min 21 sec) 
Heartbeat CPU 0 instructions: 890000002 cycles: 4706784156 heartbeat IPC: 0.148216 cumulative IPC: 0.148171 (Simulation time: 3 hr 24 min 23 sec) 
Heartbeat CPU 0 instructions: 900000002 cycles: 4773685667 heartbeat IPC: 0.149473 cumulative IPC: 0.148189 (Simulation time: 3 hr 26 min 25 sec) 
Heartbeat CPU 0 instructions: 910000000 cycles: 4841016304 heartbeat IPC: 0.148521 cumulative IPC: 0.148194 (Simulation time: 3 hr 28 min 32 sec) 
Heartbeat CPU 0 instructions: 920000001 cycles: 4908492800 heartbeat IPC: 0.1482 cumulative IPC: 0.148194 (Simulation time: 3 hr 30 min 37 sec) 
Heartbeat CPU 0 instructions: 930000000 cycles: 4976016552 heartbeat IPC: 0.148096 cumulative IPC: 0.148193 (Simulation time: 3 hr 32 min 39 sec) 
Heartbeat CPU 0 instructions: 940000000 cycles: 5043119159 heartbeat IPC: 0.149025 cumulative IPC: 0.148204 (Simulation time: 3 hr 34 min 41 sec) 
Heartbeat CPU 0 instructions: 950000002 cycles: 5109894952 heartbeat IPC: 0.149755 cumulative IPC: 0.148224 (Simulation time: 3 hr 36 min 43 sec) 
Heartbeat CPU 0 instructions: 960000004 cycles: 5176534622 heartbeat IPC: 0.150061 cumulative IPC: 0.148248 (Simulation time: 3 hr 38 min 44 sec) 
Heartbeat CPU 0 instructions: 970000002 cycles: 5243342118 heartbeat IPC: 0.149684 cumulative IPC: 0.148267 (Simulation time: 3 hr 40 min 45 sec) 
Heartbeat CPU 0 instructions: 980000000 cycles: 5310285160 heartbeat IPC: 0.149381 cumulative IPC: 0.148281 (Simulation time: 3 hr 42 min 47 sec) 
Heartbeat CPU 0 instructions: 990000000 cycles: 5377314472 heartbeat IPC: 0.149188 cumulative IPC: 0.148292 (Simulation time: 3 hr 44 min 48 sec) 
Heartbeat CPU 0 instructions: 1000000000 cycles: 5444591413 heartbeat IPC: 0.148639 cumulative IPC: 0.148297 (Simulation time: 3 hr 46 min 54 sec) 
Heartbeat CPU 0 instructions: 1010000003 cycles: 5511249214 heartbeat IPC: 0.15002 cumulative IPC: 0.148318 (Simulation time: 3 hr 48 min 56 sec) 
Heartbeat CPU 0 instructions: 1020000001 cycles: 5578032505 heartbeat IPC: 0.149738 cumulative IPC: 0.148335 (Simulation time: 3 hr 51 min 0 sec) 
Heartbeat CPU 0 instructions: 1030000002 cycles: 5645842376 heartbeat IPC: 0.147471 cumulative IPC: 0.148324 (Simulation time: 3 hr 53 min 5 sec) 
Heartbeat CPU 0 instructions: 1040000004 cycles: 5712979922 heartbeat IPC: 0.148948 cumulative IPC: 0.148332 (Simulation time: 3 hr 55 min 7 sec) 
Heartbeat CPU 0 instructions: 1050000001 cycles: 5780101993 heartbeat IPC: 0.148982 cumulative IPC: 0.148339 (Simulation time: 3 hr 57 min 8 sec) 
Heartbeat CPU 0 instructions: 1060000000 cycles: 5847193975 heartbeat IPC: 0.149049 cumulative IPC: 0.148348 (Simulation time: 3 hr 59 min 9 sec) 
Heartbeat CPU 0 instructions: 1070000000 cycles: 5914176741 heartbeat IPC: 0.149292 cumulative IPC: 0.148358 (Simulation time: 4 hr 1 min 11 sec) 
Heartbeat CPU 0 instructions: 1080000002 cycles: 5980689900 heartbeat IPC: 0.150346 cumulative IPC: 0.148381 (Simulation time: 4 hr 3 min 12 sec) 
Heartbeat CPU 0 instructions: 1090000000 cycles: 6047660421 heartbeat IPC: 0.149319 cumulative IPC: 0.148391 (Simulation time: 4 hr 5 min 12 sec) 
Heartbeat CPU 0 instructions: 1100000001 cycles: 6114843895 heartbeat IPC: 0.148846 cumulative IPC: 0.148396 (Simulation time: 4 hr 7 min 14 sec) 
Heartbeat CPU 0 instructions: 1110000000 cycles: 6182047642 heartbeat IPC: 0.148801 cumulative IPC: 0.148401 (Simulation time: 4 hr 9 min 20 sec) 
Heartbeat CPU 0 instructions: 1120000003 cycles: 6248916824 heartbeat IPC: 0.149546 cumulative IPC: 0.148413 (Simulation time: 4 hr 11 min 30 sec) 
Heartbeat CPU 0 instructions: 1130000002 cycles: 6316578322 heartbeat IPC: 0.147795 cumulative IPC: 0.148406 (Simulation time: 4 hr 13 min 39 sec) 
Heartbeat CPU 0 instructions: 1140000000 cycles: 6383853534 heartbeat IPC: 0.148643 cumulative IPC: 0.148409 (Simulation time: 4 hr 15 min 55 sec) 
Heartbeat CPU 0 instructions: 1150000003 cycles: 6451413477 heartbeat IPC: 0.148017 cumulative IPC: 0.148405 (Simulation time: 4 hr 17 min 57 sec) 
Heartbeat CPU 0 instructions: 1160000000 cycles: 6518304485 heartbeat IPC: 0.149497 cumulative IPC: 0.148416 (Simulation time: 4 hr 20 min 0 sec) 
Heartbeat CPU 0 instructions: 1170000003 cycles: 6586016390 heartbeat IPC: 0.147685 cumulative IPC: 0.148408 (Simulation time: 4 hr 22 min 5 sec) 
Heartbeat CPU 0 instructions: 1180000000 cycles: 6653213693 heartbeat IPC: 0.148815 cumulative IPC: 0.148413 (Simulation time: 4 hr 24 min 7 sec) 
Heartbeat CPU 0 instructions: 1190000002 cycles: 6720204996 heartbeat IPC: 0.149273 cumulative IPC: 0.148421 (Simulation time: 4 hr 26 min 8 sec) 
*** Reached end of trace: tracer/pin/traces/xs-100hashxl-2.champsim.xz
Heartbeat CPU 0 instructions: 1200000001 cycles: 6787392574 heartbeat IPC: 0.148837 cumulative IPC: 0.148425 (Simulation time: 4 hr 28 min 11 sec) 
Finished CPU 0 instructions: 1000000000 cycles: 6737392527 cumulative IPC: 0.148425 (Simulation time: 4 hr 28 min 11 sec) 

ChampSim completed all CPUs

Region of Interest Statistics

CPU 0 cumulative IPC: 0.148425 instructions: 1000000000 cycles: 6737392527
cpu0_DTLB TOTAL     ACCESS:  114744973  HIT:  105821841  MISS:    8923132
cpu0_DTLB LOAD      ACCESS:   98329581  HIT:   89406449  MISS:    8923132
cpu0_DTLB RFO       ACCESS:   16415392  HIT:   16415392  MISS:          0
cpu0_DTLB PREFETCH  ACCESS:          0  HIT:          0  MISS:          0
cpu0_DTLB WRITEBACK ACCESS:          0  HIT:          0  MISS:          0
cpu0_DTLB TRANSLATION ACCESS:          0  HIT:          0  MISS:          0
cpu0_DTLB PREFETCH  REQUESTED:          0  ISSUED:          0  USEFUL:          0  USELESS:          0
cpu0_DTLB AVERAGE MISS LATENCY: 37.0318 cycles
cpu0_ITLB TOTAL     ACCESS:  110765189  HIT:  110765189  MISS:          0
cpu0_ITLB LOAD      ACCESS:  110765189  HIT:  110765189  MISS:          0
cpu0_ITLB RFO       ACCESS:          0  HIT:          0  MISS:          0
cpu0_ITLB PREFETCH  ACCESS:          0  HIT:          0  MISS:          0
cpu0_ITLB WRITEBACK ACCESS:          0  HIT:          0  MISS:          0
cpu0_ITLB TRANSLATION ACCESS:          0  HIT:          0  MISS:          0
cpu0_ITLB PREFETCH  REQUESTED:          0  ISSUED:          0  USEFUL:          0  USELESS:          0
cpu0_ITLB AVERAGE MISS LATENCY: -nan cycles
cpu0_L1I TOTAL     ACCESS:          1  HIT:          1  MISS:          0
cpu0_L1I LOAD      ACCESS:          1  HIT:          1  MISS:          0
cpu0_L1I RFO       ACCESS:          0  HIT:          0  MISS:          0
cpu0_L1I PREFETCH  ACCESS:          0  HIT:          0  MISS:          0
cpu0_L1I WRITEBACK ACCESS:          0  HIT:          0  MISS:          0
cpu0_L1I TRANSLATION ACCESS:          0  HIT:          0  MISS:          0
cpu0_L1I PREFETCH  REQUESTED:          0  ISSUED:          0  USEFUL:          0  USELESS:          0
cpu0_L1I AVERAGE MISS LATENCY: -nan cycles
cpu0_STLB TOTAL     ACCESS:    8923132  HIT:     186291  MISS:    8736841
cpu0_STLB LOAD      ACCESS:    8923132  HIT:     186291  MISS:    8736841
cpu0_STLB RFO       ACCESS:          0  HIT:          0  MISS:          0
cpu0_STLB PREFETCH  ACCESS:          0  HIT:          0  MISS:          0
cpu0_STLB WRITEBACK ACCESS:          0  HIT:          0  MISS:          0
cpu0_STLB TRANSLATION ACCESS:          0  HIT:          0  MISS:          0
cpu0_STLB PREFETCH  REQUESTED:          0  ISSUED:          0  USEFUL:          0  USELESS:          0
cpu0_STLB AVERAGE MISS LATENCY: 28.6259 cycles
cpu0_L1D TOTAL     ACCESS:  253544403  HIT:  176632738  MISS:   76911665
cpu0_L1D LOAD      ACCESS:  109020494  HIT:   68674075  MISS:   40346419
cpu0_L1D RFO       ACCESS:   37094440  HIT:   37093102  MISS:       1338
cpu0_L1D PREFETCH  ACCESS:   99855544  HIT:   67452252  MISS:   32403292
cpu0_L1D WRITEBACK ACCESS:          0  HIT:          0  MISS:          0
cpu0_L1D TRANSLATION ACCESS:    7573925  HIT:    3413309  MISS:    4160616
cpu0_L1D PREFETCH  REQUESTED:  111328387  ISSUED:  110981375  USEFUL:    9997483  USELESS:   24952138
cpu0_L1D AVERAGE MISS LATENCY: 420.808 cycles
cpu0_L2C TOTAL     ACCESS:   79501746  HIT:    2515262  MISS:   76986484
cpu0_L2C LOAD      ACCESS:   37801015  HIT:     121859  MISS:   37679156
cpu0_L2C RFO       ACCESS:        400  HIT:        400  MISS:          0
cpu0_L2C PREFETCH  ACCESS:   37475667  HIT:     578249  MISS:   36897418
cpu0_L2C WRITEBACK ACCESS:      64048  HIT:      62684  MISS:       1364
cpu0_L2C TRANSLATION ACCESS:    4160616  HIT:    1752070  MISS:    2408546
cpu0_L2C PREFETCH  REQUESTED:    3673366  ISSUED:    3515732  USEFUL:        460  USELESS:    2525135
cpu0_L2C AVERAGE MISS LATENCY: 442.462 cycles
LLC TOTAL     ACCESS:   77840822  HIT:    3630367  MISS:   74210455
LLC LOAD      ACCESS:   37679156  HIT:     228781  MISS:   37450375
LLC RFO       ACCESS:          0  HIT:          0  MISS:          0
LLC PREFETCH  ACCESS:   37718901  HIT:     959018  MISS:   36759883
LLC WRITEBACK ACCESS:      34219  HIT:      34210  MISS:          9
LLC TRANSLATION ACCESS:    2408546  HIT:    2408358  MISS:        188
LLC PREFETCH  REQUESTED:          0  ISSUED:          0  USEFUL:          0  USELESS:          0
LLC AVERAGE MISS LATENCY: 439.886 cycles

DRAM Statistics
 CHANNEL 0
 RQ ROW_BUFFER_HIT:   18283056  ROW_BUFFER_MISS:   55927391
 DBUS AVG_CONGESTED_CYCLE:    3.90694
 WQ ROW_BUFFER_HIT:         19  ROW_BUFFER_MISS:          2  FULL:          0


CPU 0 Branch Prediction Accuracy: 86.1731% MPKI: 19.1276 Average ROB Occupancy at Mispredict: 33.9672
Branch type MPKI
BRANCH_DIRECT_JUMP: 1e-06
BRANCH_INDIRECT: 0
BRANCH_CONDITIONAL: 19.1276
BRANCH_DIRECT_CALL: 0
BRANCH_INDIRECT_CALL: 0
BRANCH_RETURN: 0

