
*** ChampSim Multicore Out-of-Order Simulator ***

Warmup Instructions: 1000000
Simulation Instructions: 1000000000
Number of CPUs: 1
Off-chip DRAM Size: 4 GiB Channels: 1 Width: 64-bit Data Rate: 3200 MT/s

VirtualMemory physical capacity: 8588881920 num_ppages: 2096895
VirtualMemory page size: 4096 log2_page_size: 12

CPU 0 runs tracer/pin/traces/spec2k6/437.leslie3d-273B.champsimtrace.xz
Basic BTB sets: 1024 ways: 8 indirect buffer size: 4096 RAS size: 64
cpu0_L1D next line prefetcher
cpu0_L2C IP-based stride prefetcher
WARNING: The extended signature CACHE::prefetch_line(ip, base_addr, pf_addr, fill_this_level, prefetch_metadata) is deprecated.
WARNING: Use CACHE::prefetch_line(pf_addr, fill_this_level, prefetch_metadata) instead.

Warmup complete CPU 0 instructions: 1000004 cycles: 379297 (Simulation time: 0 hr 0 min 5 sec) 

Heartbeat CPU 0 instructions: 10000004 cycles: 9958403 heartbeat IPC: 1.00418 cumulative IPC: 0.939545 (Simulation time: 0 hr 7 min 41 sec) 
Heartbeat CPU 0 instructions: 20000004 cycles: 20932478 heartbeat IPC: 0.911239 cumulative IPC: 0.924431 (Simulation time: 0 hr 9 min 11 sec) 
Heartbeat CPU 0 instructions: 30000002 cycles: 32880732 heartbeat IPC: 0.836942 cumulative IPC: 0.892268 (Simulation time: 0 hr 10 min 40 sec) 
Heartbeat CPU 0 instructions: 40000000 cycles: 44416544 heartbeat IPC: 0.866866 cumulative IPC: 0.885614 (Simulation time: 0 hr 12 min 0 sec) 
Heartbeat CPU 0 instructions: 50000000 cycles: 55957548 heartbeat IPC: 0.866476 cumulative IPC: 0.88164 (Simulation time: 0 hr 13 min 18 sec) 
Heartbeat CPU 0 instructions: 60000001 cycles: 67550138 heartbeat IPC: 0.86262 cumulative IPC: 0.878357 (Simulation time: 0 hr 14 min 41 sec) 
Heartbeat CPU 0 instructions: 70000001 cycles: 79102144 heartbeat IPC: 0.865651 cumulative IPC: 0.876493 (Simulation time: 0 hr 16 min 15 sec) 
Heartbeat CPU 0 instructions: 80000003 cycles: 90743924 heartbeat IPC: 0.858975 cumulative IPC: 0.874236 (Simulation time: 0 hr 17 min 44 sec) 
Heartbeat CPU 0 instructions: 90000000 cycles: 105740565 heartbeat IPC: 0.666816 cumulative IPC: 0.844713 (Simulation time: 0 hr 19 min 30 sec) 
Heartbeat CPU 0 instructions: 100000000 cycles: 120497724 heartbeat IPC: 0.677637 cumulative IPC: 0.824187 (Simulation time: 0 hr 21 min 12 sec) 
Heartbeat CPU 0 instructions: 110000003 cycles: 139051208 heartbeat IPC: 0.538983 cumulative IPC: 0.786028 (Simulation time: 0 hr 23 min 9 sec) 
Heartbeat CPU 0 instructions: 120000000 cycles: 158219710 heartbeat IPC: 0.521689 cumulative IPC: 0.753926 (Simulation time: 0 hr 25 min 22 sec) 
Heartbeat CPU 0 instructions: 130000002 cycles: 177212803 heartbeat IPC: 0.526507 cumulative IPC: 0.7295 (Simulation time: 0 hr 27 min 38 sec) 
Heartbeat CPU 0 instructions: 140000004 cycles: 196078374 heartbeat IPC: 0.530066 cumulative IPC: 0.710274 (Simulation time: 0 hr 29 min 47 sec) 
Heartbeat CPU 0 instructions: 150000002 cycles: 212606349 heartbeat IPC: 0.605035 cumulative IPC: 0.702078 (Simulation time: 0 hr 31 min 40 sec) 
Heartbeat CPU 0 instructions: 160000002 cycles: 225615897 heartbeat IPC: 0.768666 cumulative IPC: 0.705924 (Simulation time: 0 hr 33 min 33 sec) 
Heartbeat CPU 0 instructions: 170000002 cycles: 238634546 heartbeat IPC: 0.768129 cumulative IPC: 0.709323 (Simulation time: 0 hr 35 min 18 sec) 
Heartbeat CPU 0 instructions: 180000004 cycles: 251623253 heartbeat IPC: 0.7699 cumulative IPC: 0.712455 (Simulation time: 0 hr 36 min 52 sec) 
Heartbeat CPU 0 instructions: 190000002 cycles: 264513478 heartbeat IPC: 0.775782 cumulative IPC: 0.715545 (Simulation time: 0 hr 38 min 31 sec) 
Heartbeat CPU 0 instructions: 200000004 cycles: 277567774 heartbeat IPC: 0.766032 cumulative IPC: 0.717923 (Simulation time: 0 hr 40 min 5 sec) 
Heartbeat CPU 0 instructions: 210000000 cycles: 290509452 heartbeat IPC: 0.772697 cumulative IPC: 0.720366 (Simulation time: 0 hr 41 min 59 sec) 
Heartbeat CPU 0 instructions: 220000002 cycles: 303552905 heartbeat IPC: 0.766668 cumulative IPC: 0.722358 (Simulation time: 0 hr 43 min 54 sec) 
Heartbeat CPU 0 instructions: 230000000 cycles: 316628073 heartbeat IPC: 0.764808 cumulative IPC: 0.724113 (Simulation time: 0 hr 45 min 42 sec) 
Heartbeat CPU 0 instructions: 240000002 cycles: 329618435 heartbeat IPC: 0.769802 cumulative IPC: 0.725916 (Simulation time: 0 hr 47 min 26 sec) 
Heartbeat CPU 0 instructions: 250000001 cycles: 342625624 heartbeat IPC: 0.768806 cumulative IPC: 0.727546 (Simulation time: 0 hr 49 min 3 sec) 
Heartbeat CPU 0 instructions: 260000000 cycles: 355541343 heartbeat IPC: 0.77425 cumulative IPC: 0.729245 (Simulation time: 0 hr 50 min 45 sec) 
Heartbeat CPU 0 instructions: 270000003 cycles: 368497982 heartbeat IPC: 0.771805 cumulative IPC: 0.730743 (Simulation time: 0 hr 52 min 26 sec) 
Heartbeat CPU 0 instructions: 280000000 cycles: 381321063 heartbeat IPC: 0.779844 cumulative IPC: 0.732395 (Simulation time: 0 hr 54 min 4 sec) 
Heartbeat CPU 0 instructions: 290000002 cycles: 394231101 heartbeat IPC: 0.774591 cumulative IPC: 0.733779 (Simulation time: 0 hr 55 min 41 sec) 
Heartbeat CPU 0 instructions: 300000001 cycles: 405159951 heartbeat IPC: 0.915009 cumulative IPC: 0.738672 (Simulation time: 0 hr 57 min 3 sec) 
Heartbeat CPU 0 instructions: 310000000 cycles: 415613220 heartbeat IPC: 0.956638 cumulative IPC: 0.744159 (Simulation time: 0 hr 58 min 23 sec) 
Heartbeat CPU 0 instructions: 320000004 cycles: 426047569 heartbeat IPC: 0.958374 cumulative IPC: 0.74941 (Simulation time: 0 hr 59 min 42 sec) 
Heartbeat CPU 0 instructions: 330000003 cycles: 436422593 heartbeat IPC: 0.963853 cumulative IPC: 0.754512 (Simulation time: 1 hr 1 min 3 sec) 
Heartbeat CPU 0 instructions: 340000003 cycles: 446726501 heartbeat IPC: 0.970506 cumulative IPC: 0.759498 (Simulation time: 1 hr 2 min 21 sec) 
Heartbeat CPU 0 instructions: 350000001 cycles: 459261684 heartbeat IPC: 0.797754 cumulative IPC: 0.760543 (Simulation time: 1 hr 3 min 46 sec) 
Heartbeat CPU 0 instructions: 360000002 cycles: 474251276 heartbeat IPC: 0.66713 cumulative IPC: 0.757589 (Simulation time: 1 hr 5 min 26 sec) 
Heartbeat CPU 0 instructions: 370000000 cycles: 493216833 heartbeat IPC: 0.527272 cumulative IPC: 0.748725 (Simulation time: 1 hr 7 min 25 sec) 
Heartbeat CPU 0 instructions: 380000001 cycles: 512103583 heartbeat IPC: 0.529472 cumulative IPC: 0.740633 (Simulation time: 1 hr 9 min 21 sec) 
Heartbeat CPU 0 instructions: 390000003 cycles: 530914290 heartbeat IPC: 0.531612 cumulative IPC: 0.733222 (Simulation time: 1 hr 11 min 17 sec) 
Heartbeat CPU 0 instructions: 400000002 cycles: 548476376 heartbeat IPC: 0.569408 cumulative IPC: 0.727973 (Simulation time: 1 hr 13 min 5 sec) 
Heartbeat CPU 0 instructions: 410000002 cycles: 557787824 heartbeat IPC: 1.07395 cumulative IPC: 0.733753 (Simulation time: 1 hr 14 min 14 sec) 
Heartbeat CPU 0 instructions: 420000003 cycles: 567202241 heartbeat IPC: 1.0622 cumulative IPC: 0.739208 (Simulation time: 1 hr 15 min 23 sec) 
Heartbeat CPU 0 instructions: 430000004 cycles: 576460462 heartbeat IPC: 1.08012 cumulative IPC: 0.744687 (Simulation time: 1 hr 16 min 36 sec) 
Heartbeat CPU 0 instructions: 440000002 cycles: 585703904 heartbeat IPC: 1.08185 cumulative IPC: 0.750011 (Simulation time: 1 hr 17 min 38 sec) 
Heartbeat CPU 0 instructions: 450000001 cycles: 594975503 heartbeat IPC: 1.07856 cumulative IPC: 0.755134 (Simulation time: 1 hr 18 min 41 sec) 
Heartbeat CPU 0 instructions: 460000004 cycles: 604313685 heartbeat IPC: 1.07087 cumulative IPC: 0.760016 (Simulation time: 1 hr 19 min 40 sec) 
Heartbeat CPU 0 instructions: 470000002 cycles: 613634616 heartbeat IPC: 1.07285 cumulative IPC: 0.764771 (Simulation time: 1 hr 20 min 37 sec) 
Heartbeat CPU 0 instructions: 480000002 cycles: 622998795 heartbeat IPC: 1.0679 cumulative IPC: 0.76933 (Simulation time: 1 hr 21 min 33 sec) 
Heartbeat CPU 0 instructions: 490000003 cycles: 632195478 heartbeat IPC: 1.08735 cumulative IPC: 0.773959 (Simulation time: 1 hr 22 min 28 sec) 
Heartbeat CPU 0 instructions: 500000001 cycles: 641442155 heartbeat IPC: 1.08147 cumulative IPC: 0.778395 (Simulation time: 1 hr 23 min 24 sec) 
Heartbeat CPU 0 instructions: 510000000 cycles: 650720183 heartbeat IPC: 1.07782 cumulative IPC: 0.782666 (Simulation time: 1 hr 24 min 19 sec) 
Heartbeat CPU 0 instructions: 520000004 cycles: 660036883 heartbeat IPC: 1.07334 cumulative IPC: 0.786772 (Simulation time: 1 hr 25 min 14 sec) 
Heartbeat CPU 0 instructions: 530000001 cycles: 669327497 heartbeat IPC: 1.07635 cumulative IPC: 0.790794 (Simulation time: 1 hr 26 min 9 sec) 
Heartbeat CPU 0 instructions: 540000000 cycles: 678591192 heartbeat IPC: 1.07948 cumulative IPC: 0.794737 (Simulation time: 1 hr 27 min 3 sec) 
Heartbeat CPU 0 instructions: 550000000 cycles: 687858706 heartbeat IPC: 1.07904 cumulative IPC: 0.798569 (Simulation time: 1 hr 27 min 57 sec) 
Heartbeat CPU 0 instructions: 560000004 cycles: 709859907 heartbeat IPC: 0.454521 cumulative IPC: 0.7879 (Simulation time: 1 hr 29 min 28 sec) 
Heartbeat CPU 0 instructions: 570000000 cycles: 735292149 heartbeat IPC: 0.393202 cumulative IPC: 0.774241 (Simulation time: 1 hr 31 min 9 sec) 
Heartbeat CPU 0 instructions: 580000004 cycles: 760577317 heartbeat IPC: 0.395489 cumulative IPC: 0.761644 (Simulation time: 1 hr 32 min 49 sec) 
Heartbeat CPU 0 instructions: 590000000 cycles: 785993730 heartbeat IPC: 0.393446 cumulative IPC: 0.749732 (Simulation time: 1 hr 34 min 29 sec) 
Heartbeat CPU 0 instructions: 600000004 cycles: 829845215 heartbeat IPC: 0.228043 cumulative IPC: 0.722151 (Simulation time: 1 hr 37 min 7 sec) 
Heartbeat CPU 0 instructions: 610000002 cycles: 857942158 heartbeat IPC: 0.355911 cumulative IPC: 0.710152 (Simulation time: 1 hr 39 min 4 sec) 
Heartbeat CPU 0 instructions: 620000001 cycles: 872623690 heartbeat IPC: 0.681128 cumulative IPC: 0.709664 (Simulation time: 1 hr 40 min 15 sec) 
Heartbeat CPU 0 instructions: 630000004 cycles: 880838646 heartbeat IPC: 1.21729 cumulative IPC: 0.7144 (Simulation time: 1 hr 41 min 3 sec) 
Heartbeat CPU 0 instructions: 640000002 cycles: 889072710 heartbeat IPC: 1.21447 cumulative IPC: 0.719033 (Simulation time: 1 hr 41 min 51 sec) 
Heartbeat CPU 0 instructions: 650000003 cycles: 897288356 heartbeat IPC: 1.21719 cumulative IPC: 0.723596 (Simulation time: 1 hr 42 min 39 sec) 
Heartbeat CPU 0 instructions: 660000000 cycles: 905479305 heartbeat IPC: 1.22086 cumulative IPC: 0.728096 (Simulation time: 1 hr 43 min 27 sec) 
Heartbeat CPU 0 instructions: 670000002 cycles: 913666753 heartbeat IPC: 1.22138 cumulative IPC: 0.732519 (Simulation time: 1 hr 44 min 16 sec) 
Heartbeat CPU 0 instructions: 680000000 cycles: 921891636 heartbeat IPC: 1.21582 cumulative IPC: 0.736832 (Simulation time: 1 hr 45 min 4 sec) 
Heartbeat CPU 0 instructions: 690000001 cycles: 935402947 heartbeat IPC: 0.740121 cumulative IPC: 0.73688 (Simulation time: 1 hr 46 min 8 sec) 
Heartbeat CPU 0 instructions: 700000000 cycles: 950498434 heartbeat IPC: 0.66245 cumulative IPC: 0.735697 (Simulation time: 1 hr 47 min 17 sec) 
Heartbeat CPU 0 instructions: 710000000 cycles: 968350108 heartbeat IPC: 0.560172 cumulative IPC: 0.73246 (Simulation time: 1 hr 48 min 35 sec) 
Heartbeat CPU 0 instructions: 720000004 cycles: 987468684 heartbeat IPC: 0.523052 cumulative IPC: 0.728404 (Simulation time: 1 hr 50 min 2 sec) 
Heartbeat CPU 0 instructions: 730000003 cycles: 1006225139 heartbeat IPC: 0.53315 cumulative IPC: 0.724763 (Simulation time: 1 hr 51 min 28 sec) 
Heartbeat CPU 0 instructions: 740000003 cycles: 1024952624 heartbeat IPC: 0.533975 cumulative IPC: 0.721276 (Simulation time: 1 hr 52 min 54 sec) 
Heartbeat CPU 0 instructions: 750000000 cycles: 1041795291 heartbeat IPC: 0.59373 cumulative IPC: 0.719213 (Simulation time: 1 hr 54 min 13 sec) 
Heartbeat CPU 0 instructions: 760000000 cycles: 1053068057 heartbeat IPC: 0.887094 cumulative IPC: 0.721011 (Simulation time: 1 hr 55 min 13 sec) 
Heartbeat CPU 0 instructions: 770000002 cycles: 1064216395 heartbeat IPC: 0.896995 cumulative IPC: 0.722855 (Simulation time: 1 hr 56 min 11 sec) 
Heartbeat CPU 0 instructions: 780000001 cycles: 1075448617 heartbeat IPC: 0.890296 cumulative IPC: 0.724604 (Simulation time: 1 hr 57 min 10 sec) 
Heartbeat CPU 0 instructions: 790000003 cycles: 1086504832 heartbeat IPC: 0.904469 cumulative IPC: 0.726435 (Simulation time: 1 hr 58 min 9 sec) 
Heartbeat CPU 0 instructions: 800000004 cycles: 1097617378 heartbeat IPC: 0.899884 cumulative IPC: 0.728192 (Simulation time: 1 hr 59 min 7 sec) 
Heartbeat CPU 0 instructions: 810000004 cycles: 1108663595 heartbeat IPC: 0.905287 cumulative IPC: 0.729957 (Simulation time: 2 hr 0 min 6 sec) 
Heartbeat CPU 0 instructions: 820000003 cycles: 1119805304 heartbeat IPC: 0.897528 cumulative IPC: 0.731625 (Simulation time: 2 hr 1 min 4 sec) 
Heartbeat CPU 0 instructions: 830000001 cycles: 1130925772 heartbeat IPC: 0.899243 cumulative IPC: 0.733274 (Simulation time: 2 hr 2 min 3 sec) 
Heartbeat CPU 0 instructions: 840000000 cycles: 1142072700 heartbeat IPC: 0.897108 cumulative IPC: 0.734873 (Simulation time: 2 hr 3 min 1 sec) 
Heartbeat CPU 0 instructions: 850000003 cycles: 1153186034 heartbeat IPC: 0.89982 cumulative IPC: 0.736463 (Simulation time: 2 hr 4 min 0 sec) 
Heartbeat CPU 0 instructions: 860000003 cycles: 1164321421 heartbeat IPC: 0.898038 cumulative IPC: 0.738009 (Simulation time: 2 hr 4 min 58 sec) 
Heartbeat CPU 0 instructions: 870000002 cycles: 1175411989 heartbeat IPC: 0.901667 cumulative IPC: 0.739554 (Simulation time: 2 hr 5 min 57 sec) 
Heartbeat CPU 0 instructions: 880000003 cycles: 1186558831 heartbeat IPC: 0.897115 cumulative IPC: 0.741035 (Simulation time: 2 hr 6 min 56 sec) 
Heartbeat CPU 0 instructions: 890000004 cycles: 1197642785 heartbeat IPC: 0.902205 cumulative IPC: 0.742527 (Simulation time: 2 hr 7 min 54 sec) 
Heartbeat CPU 0 instructions: 900000000 cycles: 1208970879 heartbeat IPC: 0.882761 cumulative IPC: 0.743841 (Simulation time: 2 hr 8 min 52 sec) 
Heartbeat CPU 0 instructions: 910000003 cycles: 1220507903 heartbeat IPC: 0.866775 cumulative IPC: 0.745003 (Simulation time: 2 hr 9 min 50 sec) 
Heartbeat CPU 0 instructions: 920000001 cycles: 1232044286 heartbeat IPC: 0.866823 cumulative IPC: 0.746144 (Simulation time: 2 hr 10 min 48 sec) 
Heartbeat CPU 0 instructions: 930000003 cycles: 1243491164 heartbeat IPC: 0.873601 cumulative IPC: 0.747318 (Simulation time: 2 hr 11 min 45 sec) 
Heartbeat CPU 0 instructions: 940000004 cycles: 1254938226 heartbeat IPC: 0.873587 cumulative IPC: 0.74847 (Simulation time: 2 hr 12 min 43 sec) 
Heartbeat CPU 0 instructions: 950000000 cycles: 1266434171 heartbeat IPC: 0.869872 cumulative IPC: 0.749573 (Simulation time: 2 hr 13 min 41 sec) 
Heartbeat CPU 0 instructions: 960000000 cycles: 1279535060 heartbeat IPC: 0.763307 cumulative IPC: 0.749713 (Simulation time: 2 hr 14 min 44 sec) 
Heartbeat CPU 0 instructions: 970000000 cycles: 1294531069 heartbeat IPC: 0.666844 cumulative IPC: 0.748753 (Simulation time: 2 hr 15 min 53 sec) 
Heartbeat CPU 0 instructions: 980000001 cycles: 1311074546 heartbeat IPC: 0.604468 cumulative IPC: 0.746932 (Simulation time: 2 hr 17 min 6 sec) 
Heartbeat CPU 0 instructions: 990000004 cycles: 1330327617 heartbeat IPC: 0.519398 cumulative IPC: 0.743638 (Simulation time: 2 hr 18 min 32 sec) 
Heartbeat CPU 0 instructions: 1000000001 cycles: 1349278488 heartbeat IPC: 0.52768 cumulative IPC: 0.740604 (Simulation time: 2 hr 19 min 58 sec) 
Finished CPU 0 instructions: 1000000002 cycles: 1350792492 cumulative IPC: 0.740306 (Simulation time: 2 hr 20 min 7 sec) 

ChampSim completed all CPUs

Region of Interest Statistics

CPU 0 cumulative IPC: 0.740306 instructions: 1000000002 cycles: 1350792492
cpu0_DTLB TOTAL     ACCESS:  239053743  HIT:  238833581  MISS:     220162
cpu0_DTLB LOAD      ACCESS:  215027746  HIT:  214854600  MISS:     173146
cpu0_DTLB RFO       ACCESS:   24025997  HIT:   23978981  MISS:      47016
cpu0_DTLB PREFETCH  ACCESS:          0  HIT:          0  MISS:          0
cpu0_DTLB WRITEBACK ACCESS:          0  HIT:          0  MISS:          0
cpu0_DTLB TRANSLATION ACCESS:          0  HIT:          0  MISS:          0
cpu0_DTLB PREFETCH  REQUESTED:          0  ISSUED:          0  USEFUL:          0  USELESS:          0
cpu0_DTLB AVERAGE MISS LATENCY: 48.9719 cycles
cpu0_ITLB TOTAL     ACCESS:    7642791  HIT:    7642775  MISS:         16
cpu0_ITLB LOAD      ACCESS:    7642791  HIT:    7642775  MISS:         16
cpu0_ITLB RFO       ACCESS:          0  HIT:          0  MISS:          0
cpu0_ITLB PREFETCH  ACCESS:          0  HIT:          0  MISS:          0
cpu0_ITLB WRITEBACK ACCESS:          0  HIT:          0  MISS:          0
cpu0_ITLB TRANSLATION ACCESS:          0  HIT:          0  MISS:          0
cpu0_ITLB PREFETCH  REQUESTED:          0  ISSUED:          0  USEFUL:          0  USELESS:          0
cpu0_ITLB AVERAGE MISS LATENCY: 522.562 cycles
cpu0_L1I TOTAL     ACCESS:   21537441  HIT:   21536771  MISS:        670
cpu0_L1I LOAD      ACCESS:   21537441  HIT:   21536771  MISS:        670
cpu0_L1I RFO       ACCESS:          0  HIT:          0  MISS:          0
cpu0_L1I PREFETCH  ACCESS:          0  HIT:          0  MISS:          0
cpu0_L1I WRITEBACK ACCESS:          0  HIT:          0  MISS:          0
cpu0_L1I TRANSLATION ACCESS:          0  HIT:          0  MISS:          0
cpu0_L1I PREFETCH  REQUESTED:          0  ISSUED:          0  USEFUL:          0  USELESS:          0
cpu0_L1I AVERAGE MISS LATENCY: 671.593 cycles
cpu0_STLB TOTAL     ACCESS:     220178  HIT:     111315  MISS:     108863
cpu0_STLB LOAD      ACCESS:     173162  HIT:      96277  MISS:      76885
cpu0_STLB RFO       ACCESS:      47016  HIT:      15038  MISS:      31978
cpu0_STLB PREFETCH  ACCESS:          0  HIT:          0  MISS:          0
cpu0_STLB WRITEBACK ACCESS:          0  HIT:          0  MISS:          0
cpu0_STLB TRANSLATION ACCESS:          0  HIT:          0  MISS:          0
cpu0_STLB PREFETCH  REQUESTED:          0  ISSUED:          0  USEFUL:          0  USELESS:          0
cpu0_STLB AVERAGE MISS LATENCY: 80.8833 cycles
cpu0_L1D TOTAL     ACCESS:  501887937  HIT:  489456827  MISS:   12431110
cpu0_L1D LOAD      ACCESS:  272307146  HIT:  267693643  MISS:    4613503
cpu0_L1D RFO       ACCESS:   21644753  HIT:   18894645  MISS:    2750108
cpu0_L1D PREFETCH  ACCESS:  207834615  HIT:  202786030  MISS:    5048585
cpu0_L1D WRITEBACK ACCESS:          0  HIT:          0  MISS:          0
cpu0_L1D TRANSLATION ACCESS:     101423  HIT:      82509  MISS:      18914
cpu0_L1D PREFETCH  REQUESTED:  276973269  ISSUED:  232342821  USEFUL:    7994780  USELESS:     358529
cpu0_L1D AVERAGE MISS LATENCY: 272.594 cycles
cpu0_L2C TOTAL     ACCESS:   19291039  HIT:   11051351  MISS:    8239688
cpu0_L2C LOAD      ACCESS:    1387856  HIT:    1136936  MISS:     250920
cpu0_L2C RFO       ACCESS:    2669372  HIT:     871122  MISS:    1798250
cpu0_L2C PREFETCH  ACCESS:   11639396  HIT:    5452162  MISS:    6187234
cpu0_L2C WRITEBACK ACCESS:    3575501  HIT:    3572859  MISS:       2642
cpu0_L2C TRANSLATION ACCESS:      18914  HIT:      18272  MISS:        642
cpu0_L2C PREFETCH  REQUESTED:    3387892  ISSUED:    3386994  USEFUL:     120739  USELESS:      41718
cpu0_L2C AVERAGE MISS LATENCY: 745.974 cycles
LLC TOTAL     ACCESS:   10615844  HIT:    3341552  MISS:    7274292
LLC LOAD      ACCESS:     250917  HIT:      71434  MISS:     179483
LLC RFO       ACCESS:    1798241  HIT:     176421  MISS:    1621820
LLC PREFETCH  ACCESS:    6202014  HIT:     791491  MISS:    5410523
LLC WRITEBACK ACCESS:    2364030  HIT:    2301714  MISS:      62316
LLC TRANSLATION ACCESS:        642  HIT:        492  MISS:        150
LLC PREFETCH  REQUESTED:          0  ISSUED:          0  USEFUL:          0  USELESS:          0
LLC AVERAGE MISS LATENCY: 817.829 cycles

DRAM Statistics
 CHANNEL 0
 RQ ROW_BUFFER_HIT:     218133  ROW_BUFFER_MISS:    6992580
 DBUS AVG_CONGESTED_CYCLE:    3.97992
 WQ ROW_BUFFER_HIT:      67052  ROW_BUFFER_MISS:    2092298  FULL:          0


CPU 0 Branch Prediction Accuracy: 99.0134% MPKI: 0.246289 Average ROB Occupancy at Mispredict: 122.794
Branch type MPKI
BRANCH_DIRECT_JUMP: 5.5e-05
BRANCH_INDIRECT: 0
BRANCH_CONDITIONAL: 0.245999
BRANCH_DIRECT_CALL: 0.00012
BRANCH_INDIRECT_CALL: 0
BRANCH_RETURN: 0.000115

