
*** ChampSim Multicore Out-of-Order Simulator ***

Warmup Instructions: 1000000
Simulation Instructions: 1000000000
Number of CPUs: 1
Off-chip DRAM Size: 4 GiB Channels: 1 Width: 64-bit Data Rate: 3200 MT/s

VirtualMemory physical capacity: 8588881920 num_ppages: 2096895
VirtualMemory page size: 4096 log2_page_size: 12

CPU 0 runs tracer/pin/traces/spec2k6/481.wrf-196B.champsimtrace.xz
Basic BTB sets: 1024 ways: 8 indirect buffer size: 4096 RAS size: 64
cpu0_L1D next line prefetcher
cpu0_L2C IP-based stride prefetcher
WARNING: The extended signature CACHE::prefetch_line(ip, base_addr, pf_addr, fill_this_level, prefetch_metadata) is deprecated.
WARNING: Use CACHE::prefetch_line(pf_addr, fill_this_level, prefetch_metadata) instead.

Warmup complete CPU 0 instructions: 1000002 cycles: 314000 (Simulation time: 0 hr 0 min 4 sec) 

Heartbeat CPU 0 instructions: 10000002 cycles: 4818185 heartbeat IPC: 2.07547 cumulative IPC: 1.99814 (Simulation time: 0 hr 0 min 58 sec) 
Heartbeat CPU 0 instructions: 20000001 cycles: 11051911 heartbeat IPC: 1.60418 cumulative IPC: 1.76943 (Simulation time: 0 hr 2 min 4 sec) 
Heartbeat CPU 0 instructions: 30000000 cycles: 19851798 heartbeat IPC: 1.13638 cumulative IPC: 1.4843 (Simulation time: 0 hr 3 min 17 sec) 
Heartbeat CPU 0 instructions: 40000001 cycles: 28653952 heartbeat IPC: 1.13609 cumulative IPC: 1.37615 (Simulation time: 0 hr 4 min 26 sec) 
Heartbeat CPU 0 instructions: 50000000 cycles: 35609282 heartbeat IPC: 1.43775 cumulative IPC: 1.38829 (Simulation time: 0 hr 5 min 31 sec) 
Heartbeat CPU 0 instructions: 60000002 cycles: 42158028 heartbeat IPC: 1.52701 cumulative IPC: 1.41 (Simulation time: 0 hr 6 min 34 sec) 
Heartbeat CPU 0 instructions: 70000001 cycles: 48806314 heartbeat IPC: 1.50415 cumulative IPC: 1.42291 (Simulation time: 0 hr 7 min 37 sec) 
Heartbeat CPU 0 instructions: 80000001 cycles: 55212039 heartbeat IPC: 1.5611 cumulative IPC: 1.43903 (Simulation time: 0 hr 8 min 38 sec) 
Heartbeat CPU 0 instructions: 90000001 cycles: 61583421 heartbeat IPC: 1.56952 cumulative IPC: 1.4526 (Simulation time: 0 hr 9 min 42 sec) 
Heartbeat CPU 0 instructions: 100000000 cycles: 68760165 heartbeat IPC: 1.39339 cumulative IPC: 1.44639 (Simulation time: 0 hr 10 min 44 sec) 
Heartbeat CPU 0 instructions: 110000003 cycles: 76677939 heartbeat IPC: 1.26298 cumulative IPC: 1.42738 (Simulation time: 0 hr 11 min 53 sec) 
Heartbeat CPU 0 instructions: 120000003 cycles: 84333032 heartbeat IPC: 1.30632 cumulative IPC: 1.41635 (Simulation time: 0 hr 12 min 58 sec) 
Heartbeat CPU 0 instructions: 130000003 cycles: 90605184 heartbeat IPC: 1.59435 cumulative IPC: 1.42871 (Simulation time: 0 hr 13 min 56 sec) 
Heartbeat CPU 0 instructions: 140000000 cycles: 96888697 heartbeat IPC: 1.59147 cumulative IPC: 1.4393 (Simulation time: 0 hr 14 min 56 sec) 
Heartbeat CPU 0 instructions: 150000001 cycles: 104109658 heartbeat IPC: 1.38486 cumulative IPC: 1.43551 (Simulation time: 0 hr 16 min 2 sec) 
Heartbeat CPU 0 instructions: 160000001 cycles: 111758839 heartbeat IPC: 1.30733 cumulative IPC: 1.42671 (Simulation time: 0 hr 17 min 10 sec) 
Heartbeat CPU 0 instructions: 170000002 cycles: 119400657 heartbeat IPC: 1.30859 cumulative IPC: 1.41913 (Simulation time: 0 hr 18 min 17 sec) 
Heartbeat CPU 0 instructions: 180000000 cycles: 127026712 heartbeat IPC: 1.31129 cumulative IPC: 1.41264 (Simulation time: 0 hr 19 min 21 sec) 
Heartbeat CPU 0 instructions: 190000001 cycles: 134501425 heartbeat IPC: 1.33784 cumulative IPC: 1.40848 (Simulation time: 0 hr 20 min 23 sec) 
Heartbeat CPU 0 instructions: 200000003 cycles: 141374548 heartbeat IPC: 1.45494 cumulative IPC: 1.41074 (Simulation time: 0 hr 21 min 24 sec) 
Heartbeat CPU 0 instructions: 210000004 cycles: 147671822 heartbeat IPC: 1.58799 cumulative IPC: 1.41832 (Simulation time: 0 hr 22 min 20 sec) 
Heartbeat CPU 0 instructions: 220000000 cycles: 154166289 heartbeat IPC: 1.53977 cumulative IPC: 1.42344 (Simulation time: 0 hr 23 min 19 sec) 
Heartbeat CPU 0 instructions: 230000004 cycles: 161572805 heartbeat IPC: 1.35016 cumulative IPC: 1.42008 (Simulation time: 0 hr 24 min 24 sec) 
Heartbeat CPU 0 instructions: 240000003 cycles: 168817572 heartbeat IPC: 1.38031 cumulative IPC: 1.41837 (Simulation time: 0 hr 25 min 28 sec) 
Heartbeat CPU 0 instructions: 250000002 cycles: 176667654 heartbeat IPC: 1.27387 cumulative IPC: 1.41194 (Simulation time: 0 hr 26 min 35 sec) 
Heartbeat CPU 0 instructions: 260000004 cycles: 185068659 heartbeat IPC: 1.19033 cumulative IPC: 1.40186 (Simulation time: 0 hr 27 min 42 sec) 
Heartbeat CPU 0 instructions: 270000002 cycles: 195438757 heartbeat IPC: 0.964311 cumulative IPC: 1.37861 (Simulation time: 0 hr 29 min 6 sec) 
Heartbeat CPU 0 instructions: 280000001 cycles: 206928124 heartbeat IPC: 0.87037 cumulative IPC: 1.35034 (Simulation time: 0 hr 30 min 39 sec) 
Heartbeat CPU 0 instructions: 290000004 cycles: 222108614 heartbeat IPC: 0.65874 cumulative IPC: 1.30301 (Simulation time: 0 hr 32 min 37 sec) 
Heartbeat CPU 0 instructions: 300000001 cycles: 229460339 heartbeat IPC: 1.36022 cumulative IPC: 1.30484 (Simulation time: 0 hr 34 min 1 sec) 
Heartbeat CPU 0 instructions: 310000003 cycles: 236693408 heartbeat IPC: 1.38254 cumulative IPC: 1.30722 (Simulation time: 0 hr 35 min 19 sec) 
Heartbeat CPU 0 instructions: 320000001 cycles: 242623514 heartbeat IPC: 1.68631 cumulative IPC: 1.3165 (Simulation time: 0 hr 36 min 34 sec) 
Heartbeat CPU 0 instructions: 330000003 cycles: 248080348 heartbeat IPC: 1.83256 cumulative IPC: 1.32786 (Simulation time: 0 hr 37 min 46 sec) 
Heartbeat CPU 0 instructions: 340000002 cycles: 253559900 heartbeat IPC: 1.82497 cumulative IPC: 1.33862 (Simulation time: 0 hr 38 min 55 sec) 
Heartbeat CPU 0 instructions: 350000004 cycles: 259056935 heartbeat IPC: 1.81916 cumulative IPC: 1.34883 (Simulation time: 0 hr 40 min 4 sec) 
Heartbeat CPU 0 instructions: 360000000 cycles: 266457425 heartbeat IPC: 1.35126 cumulative IPC: 1.3489 (Simulation time: 0 hr 41 min 25 sec) 
Heartbeat CPU 0 instructions: 370000001 cycles: 275049019 heartbeat IPC: 1.16393 cumulative IPC: 1.34311 (Simulation time: 0 hr 42 min 51 sec) 
Heartbeat CPU 0 instructions: 380000001 cycles: 283474389 heartbeat IPC: 1.18689 cumulative IPC: 1.33846 (Simulation time: 0 hr 44 min 17 sec) 
Heartbeat CPU 0 instructions: 390000001 cycles: 291900509 heartbeat IPC: 1.18679 cumulative IPC: 1.33408 (Simulation time: 0 hr 45 min 45 sec) 
Heartbeat CPU 0 instructions: 400000000 cycles: 300181842 heartbeat IPC: 1.20753 cumulative IPC: 1.33059 (Simulation time: 0 hr 47 min 14 sec) 
Heartbeat CPU 0 instructions: 410000004 cycles: 308345090 heartbeat IPC: 1.225 cumulative IPC: 1.32779 (Simulation time: 0 hr 48 min 43 sec) 
Heartbeat CPU 0 instructions: 420000004 cycles: 316624053 heartbeat IPC: 1.20788 cumulative IPC: 1.32465 (Simulation time: 0 hr 50 min 13 sec) 
Heartbeat CPU 0 instructions: 430000001 cycles: 324877117 heartbeat IPC: 1.21167 cumulative IPC: 1.32178 (Simulation time: 0 hr 51 min 44 sec) 
Heartbeat CPU 0 instructions: 440000000 cycles: 333682490 heartbeat IPC: 1.13567 cumulative IPC: 1.31686 (Simulation time: 0 hr 53 min 13 sec) 
Heartbeat CPU 0 instructions: 450000000 cycles: 346303919 heartbeat IPC: 0.792303 cumulative IPC: 1.29773 (Simulation time: 0 hr 54 min 51 sec) 
Heartbeat CPU 0 instructions: 460000004 cycles: 352656272 heartbeat IPC: 1.57422 cumulative IPC: 1.30271 (Simulation time: 0 hr 56 min 15 sec) 
Heartbeat CPU 0 instructions: 470000000 cycles: 358848227 heartbeat IPC: 1.615 cumulative IPC: 1.3081 (Simulation time: 0 hr 57 min 36 sec) 
Heartbeat CPU 0 instructions: 480000001 cycles: 365107661 heartbeat IPC: 1.59759 cumulative IPC: 1.31307 (Simulation time: 0 hr 58 min 58 sec) 
Heartbeat CPU 0 instructions: 490000003 cycles: 371525783 heartbeat IPC: 1.55809 cumulative IPC: 1.31731 (Simulation time: 1 hr 0 min 7 sec) 
Heartbeat CPU 0 instructions: 500000002 cycles: 378319677 heartbeat IPC: 1.47191 cumulative IPC: 1.32009 (Simulation time: 1 hr 1 min 19 sec) 
Heartbeat CPU 0 instructions: 510000003 cycles: 387241130 heartbeat IPC: 1.12089 cumulative IPC: 1.31549 (Simulation time: 1 hr 2 min 46 sec) 
Heartbeat CPU 0 instructions: 520000003 cycles: 397452508 heartbeat IPC: 0.9793 cumulative IPC: 1.30685 (Simulation time: 1 hr 4 min 14 sec) 
Heartbeat CPU 0 instructions: 530000002 cycles: 409352201 heartbeat IPC: 0.840358 cumulative IPC: 1.29328 (Simulation time: 1 hr 5 min 48 sec) 
Heartbeat CPU 0 instructions: 540000003 cycles: 418711209 heartbeat IPC: 1.06849 cumulative IPC: 1.28825 (Simulation time: 1 hr 7 min 17 sec) 
Heartbeat CPU 0 instructions: 550000000 cycles: 429054013 heartbeat IPC: 0.966856 cumulative IPC: 1.2805 (Simulation time: 1 hr 8 min 45 sec) 
Heartbeat CPU 0 instructions: 560000004 cycles: 440158750 heartbeat IPC: 0.900517 cumulative IPC: 1.2709 (Simulation time: 1 hr 10 min 15 sec) 
Heartbeat CPU 0 instructions: 570000000 cycles: 446410202 heartbeat IPC: 1.59963 cumulative IPC: 1.27551 (Simulation time: 1 hr 11 min 21 sec) 
Heartbeat CPU 0 instructions: 580000003 cycles: 452672714 heartbeat IPC: 1.5968 cumulative IPC: 1.27996 (Simulation time: 1 hr 12 min 25 sec) 
Heartbeat CPU 0 instructions: 590000002 cycles: 460107591 heartbeat IPC: 1.34501 cumulative IPC: 1.28101 (Simulation time: 1 hr 13 min 36 sec) 
Heartbeat CPU 0 instructions: 600000003 cycles: 470503289 heartbeat IPC: 0.961936 cumulative IPC: 1.27395 (Simulation time: 1 hr 15 min 3 sec) 
Heartbeat CPU 0 instructions: 610000002 cycles: 482741553 heartbeat IPC: 0.817109 cumulative IPC: 1.26237 (Simulation time: 1 hr 16 min 48 sec) 
Heartbeat CPU 0 instructions: 620000001 cycles: 495081527 heartbeat IPC: 0.810374 cumulative IPC: 1.25109 (Simulation time: 1 hr 18 min 35 sec) 
Heartbeat CPU 0 instructions: 630000000 cycles: 504013247 heartbeat IPC: 1.11961 cumulative IPC: 1.24876 (Simulation time: 1 hr 20 min 6 sec) 
Heartbeat CPU 0 instructions: 640000001 cycles: 526161980 heartbeat IPC: 0.451493 cumulative IPC: 1.21518 (Simulation time: 1 hr 22 min 37 sec) 
Heartbeat CPU 0 instructions: 650000000 cycles: 547848704 heartbeat IPC: 0.461112 cumulative IPC: 1.18531 (Simulation time: 1 hr 25 min 12 sec) 
Heartbeat CPU 0 instructions: 660000001 cycles: 570203905 heartbeat IPC: 0.447323 cumulative IPC: 1.15636 (Simulation time: 1 hr 27 min 50 sec) 
Heartbeat CPU 0 instructions: 670000004 cycles: 605954928 heartbeat IPC: 0.279712 cumulative IPC: 1.10461 (Simulation time: 1 hr 31 min 51 sec) 
Heartbeat CPU 0 instructions: 680000000 cycles: 627327324 heartbeat IPC: 0.467893 cumulative IPC: 1.08291 (Simulation time: 1 hr 34 min 16 sec) 
Heartbeat CPU 0 instructions: 690000003 cycles: 642555178 heartbeat IPC: 0.656692 cumulative IPC: 1.07281 (Simulation time: 1 hr 36 min 11 sec) 
Heartbeat CPU 0 instructions: 700000004 cycles: 656486355 heartbeat IPC: 0.717815 cumulative IPC: 1.06527 (Simulation time: 1 hr 37 min 54 sec) 
Heartbeat CPU 0 instructions: 710000001 cycles: 666623521 heartbeat IPC: 0.986469 cumulative IPC: 1.06407 (Simulation time: 1 hr 39 min 16 sec) 
Heartbeat CPU 0 instructions: 720000000 cycles: 680195349 heartbeat IPC: 0.73682 cumulative IPC: 1.05754 (Simulation time: 1 hr 41 min 4 sec) 
Heartbeat CPU 0 instructions: 730000002 cycles: 687631351 heartbeat IPC: 1.34481 cumulative IPC: 1.06065 (Simulation time: 1 hr 42 min 25 sec) 
Heartbeat CPU 0 instructions: 740000002 cycles: 694452152 heartbeat IPC: 1.4661 cumulative IPC: 1.06463 (Simulation time: 1 hr 43 min 41 sec) 
Heartbeat CPU 0 instructions: 750000003 cycles: 701149743 heartbeat IPC: 1.49307 cumulative IPC: 1.06872 (Simulation time: 1 hr 44 min 58 sec) 
Heartbeat CPU 0 instructions: 760000004 cycles: 707893684 heartbeat IPC: 1.48281 cumulative IPC: 1.07267 (Simulation time: 1 hr 46 min 16 sec) 
Heartbeat CPU 0 instructions: 770000001 cycles: 714582862 heartbeat IPC: 1.49495 cumulative IPC: 1.07663 (Simulation time: 1 hr 47 min 33 sec) 
Heartbeat CPU 0 instructions: 780000001 cycles: 721788959 heartbeat IPC: 1.38771 cumulative IPC: 1.07973 (Simulation time: 1 hr 48 min 48 sec) 
Heartbeat CPU 0 instructions: 790000001 cycles: 729649804 heartbeat IPC: 1.27213 cumulative IPC: 1.08181 (Simulation time: 1 hr 50 min 7 sec) 
Heartbeat CPU 0 instructions: 800000001 cycles: 737190438 heartbeat IPC: 1.32615 cumulative IPC: 1.08431 (Simulation time: 1 hr 51 min 23 sec) 
Heartbeat CPU 0 instructions: 810000000 cycles: 744714352 heartbeat IPC: 1.3291 cumulative IPC: 1.08678 (Simulation time: 1 hr 52 min 39 sec) 
Heartbeat CPU 0 instructions: 820000001 cycles: 752333847 heartbeat IPC: 1.31242 cumulative IPC: 1.08907 (Simulation time: 1 hr 53 min 54 sec) 
Heartbeat CPU 0 instructions: 830000000 cycles: 761666447 heartbeat IPC: 1.07151 cumulative IPC: 1.08885 (Simulation time: 1 hr 55 min 24 sec) 
Heartbeat CPU 0 instructions: 840000002 cycles: 768893296 heartbeat IPC: 1.38373 cumulative IPC: 1.09162 (Simulation time: 1 hr 56 min 42 sec) 
Heartbeat CPU 0 instructions: 850000003 cycles: 776152829 heartbeat IPC: 1.3775 cumulative IPC: 1.0943 (Simulation time: 1 hr 58 min 0 sec) 
Heartbeat CPU 0 instructions: 860000003 cycles: 788082752 heartbeat IPC: 0.838228 cumulative IPC: 1.09042 (Simulation time: 1 hr 59 min 38 sec) 
Heartbeat CPU 0 instructions: 870000003 cycles: 802268390 heartbeat IPC: 0.704938 cumulative IPC: 1.0836 (Simulation time: 2 hr 1 min 21 sec) 
Heartbeat CPU 0 instructions: 880000001 cycles: 809945478 heartbeat IPC: 1.30258 cumulative IPC: 1.08568 (Simulation time: 2 hr 2 min 28 sec) 
Heartbeat CPU 0 instructions: 890000003 cycles: 821833595 heartbeat IPC: 0.841176 cumulative IPC: 1.08214 (Simulation time: 2 hr 4 min 3 sec) 
Heartbeat CPU 0 instructions: 900000001 cycles: 855051090 heartbeat IPC: 0.301046 cumulative IPC: 1.05179 (Simulation time: 2 hr 7 min 33 sec) 
Heartbeat CPU 0 instructions: 910000002 cycles: 870943399 heartbeat IPC: 0.629235 cumulative IPC: 1.04407 (Simulation time: 2 hr 9 min 25 sec) 
Heartbeat CPU 0 instructions: 920000000 cycles: 879216723 heartbeat IPC: 1.2087 cumulative IPC: 1.04562 (Simulation time: 2 hr 10 min 43 sec) 
Heartbeat CPU 0 instructions: 930000002 cycles: 887359559 heartbeat IPC: 1.22807 cumulative IPC: 1.0473 (Simulation time: 2 hr 12 min 0 sec) 
Heartbeat CPU 0 instructions: 940000003 cycles: 895483736 heartbeat IPC: 1.23089 cumulative IPC: 1.04896 (Simulation time: 2 hr 13 min 16 sec) 
Heartbeat CPU 0 instructions: 950000000 cycles: 903766721 heartbeat IPC: 1.20729 cumulative IPC: 1.05041 (Simulation time: 2 hr 14 min 33 sec) 
Heartbeat CPU 0 instructions: 960000004 cycles: 911953209 heartbeat IPC: 1.22153 cumulative IPC: 1.05195 (Simulation time: 2 hr 15 min 50 sec) 
Heartbeat CPU 0 instructions: 970000000 cycles: 920111415 heartbeat IPC: 1.22576 cumulative IPC: 1.05349 (Simulation time: 2 hr 17 min 4 sec) 
Heartbeat CPU 0 instructions: 980000000 cycles: 928281917 heartbeat IPC: 1.22391 cumulative IPC: 1.05499 (Simulation time: 2 hr 18 min 16 sec) 
Heartbeat CPU 0 instructions: 990000003 cycles: 936506923 heartbeat IPC: 1.2158 cumulative IPC: 1.05641 (Simulation time: 2 hr 19 min 27 sec) 
Heartbeat CPU 0 instructions: 1000000001 cycles: 952535681 heartbeat IPC: 0.623879 cumulative IPC: 1.04913 (Simulation time: 2 hr 21 min 12 sec) 
Finished CPU 0 instructions: 1000000000 cycles: 953755656 cumulative IPC: 1.04849 (Simulation time: 2 hr 21 min 23 sec) 

ChampSim completed all CPUs

Region of Interest Statistics

CPU 0 cumulative IPC: 1.04849 instructions: 1000000000 cycles: 953755656
cpu0_DTLB TOTAL     ACCESS:  277145048  HIT:  276922848  MISS:     222200
cpu0_DTLB LOAD      ACCESS:  243013980  HIT:  242837354  MISS:     176626
cpu0_DTLB RFO       ACCESS:   34131068  HIT:   34085494  MISS:      45574
cpu0_DTLB PREFETCH  ACCESS:          0  HIT:          0  MISS:          0
cpu0_DTLB WRITEBACK ACCESS:          0  HIT:          0  MISS:          0
cpu0_DTLB TRANSLATION ACCESS:          0  HIT:          0  MISS:          0
cpu0_DTLB PREFETCH  REQUESTED:          0  ISSUED:          0  USEFUL:          0  USELESS:          0
cpu0_DTLB AVERAGE MISS LATENCY: 59.6593 cycles
cpu0_ITLB TOTAL     ACCESS:    6629219  HIT:    6629121  MISS:         98
cpu0_ITLB LOAD      ACCESS:    6629219  HIT:    6629121  MISS:         98
cpu0_ITLB RFO       ACCESS:          0  HIT:          0  MISS:          0
cpu0_ITLB PREFETCH  ACCESS:          0  HIT:          0  MISS:          0
cpu0_ITLB WRITEBACK ACCESS:          0  HIT:          0  MISS:          0
cpu0_ITLB TRANSLATION ACCESS:          0  HIT:          0  MISS:          0
cpu0_ITLB PREFETCH  REQUESTED:          0  ISSUED:          0  USEFUL:          0  USELESS:          0
cpu0_ITLB AVERAGE MISS LATENCY: 372.082 cycles
cpu0_L1I TOTAL     ACCESS:    5244518  HIT:    5241652  MISS:       2866
cpu0_L1I LOAD      ACCESS:    5244518  HIT:    5241652  MISS:       2866
cpu0_L1I RFO       ACCESS:          0  HIT:          0  MISS:          0
cpu0_L1I PREFETCH  ACCESS:          0  HIT:          0  MISS:          0
cpu0_L1I WRITEBACK ACCESS:          0  HIT:          0  MISS:          0
cpu0_L1I TRANSLATION ACCESS:          0  HIT:          0  MISS:          0
cpu0_L1I PREFETCH  REQUESTED:          0  ISSUED:          0  USEFUL:          0  USELESS:          0
cpu0_L1I AVERAGE MISS LATENCY: 609.965 cycles
cpu0_STLB TOTAL     ACCESS:     222298  HIT:     127014  MISS:      95284
cpu0_STLB LOAD      ACCESS:     176724  HIT:      93528  MISS:      83196
cpu0_STLB RFO       ACCESS:      45574  HIT:      33486  MISS:      12088
cpu0_STLB PREFETCH  ACCESS:          0  HIT:          0  MISS:          0
cpu0_STLB WRITEBACK ACCESS:          0  HIT:          0  MISS:          0
cpu0_STLB TRANSLATION ACCESS:          0  HIT:          0  MISS:          0
cpu0_STLB PREFETCH  REQUESTED:          0  ISSUED:          0  USEFUL:          0  USELESS:          0
cpu0_STLB AVERAGE MISS LATENCY: 118.149 cycles
cpu0_L1D TOTAL     ACCESS:  474167281  HIT:  464276452  MISS:    9890829
cpu0_L1D LOAD      ACCESS:  248641139  HIT:  245409890  MISS:    3231249
cpu0_L1D RFO       ACCESS:   46543417  HIT:   45302770  MISS:    1240647
cpu0_L1D PREFETCH  ACCESS:  178889680  HIT:  173493884  MISS:    5395796
cpu0_L1D WRITEBACK ACCESS:          0  HIT:          0  MISS:          0
cpu0_L1D TRANSLATION ACCESS:      93045  HIT:      69908  MISS:      23137
cpu0_L1D PREFETCH  REQUESTED:  255909572  ISSUED:  236185315  USEFUL:    8134655  USELESS:      97342
cpu0_L1D AVERAGE MISS LATENCY: 217.191 cycles
cpu0_L2C TOTAL     ACCESS:   13322259  HIT:    6649895  MISS:    6672364
cpu0_L2C LOAD      ACCESS:     397957  HIT:     144431  MISS:     253526
cpu0_L2C RFO       ACCESS:    1240547  HIT:     561127  MISS:     679420
cpu0_L2C PREFETCH  ACCESS:    8845202  HIT:    3110455  MISS:    5734747
cpu0_L2C WRITEBACK ACCESS:    2815416  HIT:    2813180  MISS:       2236
cpu0_L2C TRANSLATION ACCESS:      23137  HIT:      20702  MISS:       2435
cpu0_L2C PREFETCH  REQUESTED:     650907  ISSUED:     648049  USEFUL:      24222  USELESS:      17453
cpu0_L2C AVERAGE MISS LATENCY: 564.59 cycles
LLC TOTAL     ACCESS:    8742856  HIT:    2544452  MISS:    6198404
LLC LOAD      ACCESS:     253522  HIT:      57148  MISS:     196374
LLC RFO       ACCESS:     679418  HIT:      51536  MISS:     627882
LLC PREFETCH  ACCESS:    5740760  HIT:     425954  MISS:    5314806
LLC WRITEBACK ACCESS:    2066721  HIT:    2007643  MISS:      59078
LLC TRANSLATION ACCESS:       2435  HIT:       2171  MISS:        264
LLC PREFETCH  REQUESTED:          0  ISSUED:          0  USEFUL:          0  USELESS:          0
LLC AVERAGE MISS LATENCY: 579.944 cycles

DRAM Statistics
 CHANNEL 0
 RQ ROW_BUFFER_HIT:     172043  ROW_BUFFER_MISS:    5967169
 DBUS AVG_CONGESTED_CYCLE:    3.97004
 WQ ROW_BUFFER_HIT:      62117  ROW_BUFFER_MISS:    1893810  FULL:          0


CPU 0 Branch Prediction Accuracy: 99.2233% MPKI: 0.294287 Average ROB Occupancy at Mispredict: 124.141
Branch type MPKI
BRANCH_DIRECT_JUMP: 0.00025
BRANCH_INDIRECT: 0
BRANCH_CONDITIONAL: 0.293873
BRANCH_DIRECT_CALL: 8.6e-05
BRANCH_INDIRECT_CALL: 0
BRANCH_RETURN: 7.8e-05

