
*** ChampSim Multicore Out-of-Order Simulator ***

Warmup Instructions: 1000000
Simulation Instructions: 1000000000
Number of CPUs: 1
Off-chip DRAM Size: 4 GiB Channels: 1 Width: 64-bit Data Rate: 3200 MT/s

VirtualMemory physical capacity: 8588881920 num_ppages: 2096895
VirtualMemory page size: 4096 log2_page_size: 12

CPU 0 runs tracer/pin/traces/spec2k17/649.fotonik3d_s-1176B.champsimtrace.xz
Basic BTB sets: 1024 ways: 8 indirect buffer size: 4096 RAS size: 64
cpu0_L1D next line prefetcher
cpu0_L2C IP-based stride prefetcher
WARNING: The extended signature CACHE::prefetch_line(ip, base_addr, pf_addr, fill_this_level, prefetch_metadata) is deprecated.
WARNING: Use CACHE::prefetch_line(pf_addr, fill_this_level, prefetch_metadata) instead.

Warmup complete CPU 0 instructions: 1000003 cycles: 350910 (Simulation time: 0 hr 0 min 5 sec) 

Heartbeat CPU 0 instructions: 10000001 cycles: 15737334 heartbeat IPC: 0.635432 cumulative IPC: 0.584931 (Simulation time: 0 hr 1 min 43 sec) 
Heartbeat CPU 0 instructions: 20000004 cycles: 35246966 heartbeat IPC: 0.512567 cumulative IPC: 0.544474 (Simulation time: 0 hr 3 min 44 sec) 
Heartbeat CPU 0 instructions: 30000003 cycles: 54813440 heartbeat IPC: 0.511078 cumulative IPC: 0.532476 (Simulation time: 0 hr 5 min 55 sec) 
Heartbeat CPU 0 instructions: 40000002 cycles: 74363790 heartbeat IPC: 0.5115 cumulative IPC: 0.526935 (Simulation time: 0 hr 8 min 3 sec) 
Heartbeat CPU 0 instructions: 50000001 cycles: 93923192 heartbeat IPC: 0.511263 cumulative IPC: 0.523659 (Simulation time: 0 hr 10 min 14 sec) 
Heartbeat CPU 0 instructions: 60000001 cycles: 113504958 heartbeat IPC: 0.510679 cumulative IPC: 0.521413 (Simulation time: 0 hr 12 min 25 sec) 
Heartbeat CPU 0 instructions: 70000000 cycles: 133087462 heartbeat IPC: 0.51066 cumulative IPC: 0.519827 (Simulation time: 0 hr 14 min 29 sec) 
Heartbeat CPU 0 instructions: 80000000 cycles: 152641806 heartbeat IPC: 0.511395 cumulative IPC: 0.518744 (Simulation time: 0 hr 16 min 38 sec) 
Heartbeat CPU 0 instructions: 90000004 cycles: 172200654 heartbeat IPC: 0.511278 cumulative IPC: 0.517894 (Simulation time: 0 hr 18 min 41 sec) 
Heartbeat CPU 0 instructions: 100000003 cycles: 191787090 heartbeat IPC: 0.510557 cumulative IPC: 0.517144 (Simulation time: 0 hr 20 min 41 sec) 
Heartbeat CPU 0 instructions: 110000001 cycles: 211374322 heartbeat IPC: 0.510537 cumulative IPC: 0.51653 (Simulation time: 0 hr 22 min 41 sec) 
Heartbeat CPU 0 instructions: 120000002 cycles: 230980415 heartbeat IPC: 0.510046 cumulative IPC: 0.515979 (Simulation time: 0 hr 24 min 38 sec) 
Heartbeat CPU 0 instructions: 130000000 cycles: 250549034 heartbeat IPC: 0.511022 cumulative IPC: 0.515591 (Simulation time: 0 hr 26 min 28 sec) 
Heartbeat CPU 0 instructions: 140000001 cycles: 270137560 heartbeat IPC: 0.510503 cumulative IPC: 0.515222 (Simulation time: 0 hr 28 min 13 sec) 
Heartbeat CPU 0 instructions: 150000000 cycles: 289746521 heartbeat IPC: 0.509971 cumulative IPC: 0.514866 (Simulation time: 0 hr 30 min 1 sec) 
Heartbeat CPU 0 instructions: 160000001 cycles: 309328340 heartbeat IPC: 0.510678 cumulative IPC: 0.514601 (Simulation time: 0 hr 31 min 47 sec) 
Heartbeat CPU 0 instructions: 170000000 cycles: 328887158 heartbeat IPC: 0.511278 cumulative IPC: 0.514403 (Simulation time: 0 hr 33 min 28 sec) 
Heartbeat CPU 0 instructions: 180000001 cycles: 348497805 heartbeat IPC: 0.509927 cumulative IPC: 0.514151 (Simulation time: 0 hr 35 min 10 sec) 
Heartbeat CPU 0 instructions: 190000004 cycles: 368078110 heartbeat IPC: 0.510717 cumulative IPC: 0.513968 (Simulation time: 0 hr 36 min 50 sec) 
Heartbeat CPU 0 instructions: 200000002 cycles: 387661095 heartbeat IPC: 0.510647 cumulative IPC: 0.5138 (Simulation time: 0 hr 38 min 35 sec) 
Heartbeat CPU 0 instructions: 210000001 cycles: 407225975 heartbeat IPC: 0.51112 cumulative IPC: 0.513671 (Simulation time: 0 hr 40 min 16 sec) 
Heartbeat CPU 0 instructions: 220000002 cycles: 426817473 heartbeat IPC: 0.510426 cumulative IPC: 0.513522 (Simulation time: 0 hr 41 min 58 sec) 
Heartbeat CPU 0 instructions: 230000000 cycles: 446389697 heartbeat IPC: 0.510928 cumulative IPC: 0.513408 (Simulation time: 0 hr 43 min 41 sec) 
Heartbeat CPU 0 instructions: 240000004 cycles: 465955016 heartbeat IPC: 0.511109 cumulative IPC: 0.513312 (Simulation time: 0 hr 45 min 20 sec) 
Heartbeat CPU 0 instructions: 250000003 cycles: 485523577 heartbeat IPC: 0.511024 cumulative IPC: 0.513219 (Simulation time: 0 hr 47 min 3 sec) 
Heartbeat CPU 0 instructions: 260000003 cycles: 505088994 heartbeat IPC: 0.511106 cumulative IPC: 0.513137 (Simulation time: 0 hr 48 min 46 sec) 
Heartbeat CPU 0 instructions: 270000002 cycles: 523133441 heartbeat IPC: 0.554187 cumulative IPC: 0.514554 (Simulation time: 0 hr 50 min 29 sec) 
Heartbeat CPU 0 instructions: 280000000 cycles: 540081009 heartbeat IPC: 0.590055 cumulative IPC: 0.516925 (Simulation time: 0 hr 51 min 55 sec) 
Heartbeat CPU 0 instructions: 290000003 cycles: 559655555 heartbeat IPC: 0.510868 cumulative IPC: 0.516713 (Simulation time: 0 hr 53 min 28 sec) 
Heartbeat CPU 0 instructions: 300000001 cycles: 579237072 heartbeat IPC: 0.510686 cumulative IPC: 0.516509 (Simulation time: 0 hr 55 min 2 sec) 
Heartbeat CPU 0 instructions: 310000004 cycles: 598821945 heartbeat IPC: 0.510598 cumulative IPC: 0.516316 (Simulation time: 0 hr 56 min 31 sec) 
Heartbeat CPU 0 instructions: 320000003 cycles: 618397554 heartbeat IPC: 0.51084 cumulative IPC: 0.516142 (Simulation time: 0 hr 58 min 17 sec) 
Heartbeat CPU 0 instructions: 330000002 cycles: 637951815 heartbeat IPC: 0.511397 cumulative IPC: 0.515997 (Simulation time: 0 hr 59 min 49 sec) 
Heartbeat CPU 0 instructions: 340000001 cycles: 657556575 heartbeat IPC: 0.51008 cumulative IPC: 0.51582 (Simulation time: 1 hr 1 min 21 sec) 
Heartbeat CPU 0 instructions: 350000001 cycles: 677142254 heartbeat IPC: 0.510577 cumulative IPC: 0.515669 (Simulation time: 1 hr 2 min 56 sec) 
Heartbeat CPU 0 instructions: 360000000 cycles: 696730370 heartbeat IPC: 0.510514 cumulative IPC: 0.515524 (Simulation time: 1 hr 4 min 28 sec) 
Heartbeat CPU 0 instructions: 370000004 cycles: 716330950 heartbeat IPC: 0.510189 cumulative IPC: 0.515378 (Simulation time: 1 hr 5 min 57 sec) 
Heartbeat CPU 0 instructions: 380000003 cycles: 735923606 heartbeat IPC: 0.510395 cumulative IPC: 0.515245 (Simulation time: 1 hr 7 min 23 sec) 
Heartbeat CPU 0 instructions: 390000002 cycles: 755507499 heartbeat IPC: 0.510624 cumulative IPC: 0.515125 (Simulation time: 1 hr 8 min 49 sec) 
Heartbeat CPU 0 instructions: 400000001 cycles: 775084417 heartbeat IPC: 0.510806 cumulative IPC: 0.515016 (Simulation time: 1 hr 10 min 15 sec) 
Heartbeat CPU 0 instructions: 410000002 cycles: 794683754 heartbeat IPC: 0.510221 cumulative IPC: 0.514898 (Simulation time: 1 hr 11 min 41 sec) 
Heartbeat CPU 0 instructions: 420000000 cycles: 814240721 heartbeat IPC: 0.511327 cumulative IPC: 0.514812 (Simulation time: 1 hr 13 min 6 sec) 
Heartbeat CPU 0 instructions: 430000001 cycles: 833817930 heartbeat IPC: 0.510798 cumulative IPC: 0.514717 (Simulation time: 1 hr 14 min 29 sec) 
Heartbeat CPU 0 instructions: 440000000 cycles: 853403447 heartbeat IPC: 0.510581 cumulative IPC: 0.514622 (Simulation time: 1 hr 15 min 51 sec) 
Heartbeat CPU 0 instructions: 450000000 cycles: 872964224 heartbeat IPC: 0.511227 cumulative IPC: 0.514546 (Simulation time: 1 hr 17 min 13 sec) 
Heartbeat CPU 0 instructions: 460000004 cycles: 892546886 heartbeat IPC: 0.510656 cumulative IPC: 0.514461 (Simulation time: 1 hr 18 min 36 sec) 
Heartbeat CPU 0 instructions: 470000003 cycles: 912130841 heartbeat IPC: 0.510622 cumulative IPC: 0.514378 (Simulation time: 1 hr 19 min 58 sec) 
Heartbeat CPU 0 instructions: 480000002 cycles: 931707344 heartbeat IPC: 0.510816 cumulative IPC: 0.514304 (Simulation time: 1 hr 21 min 20 sec) 
Heartbeat CPU 0 instructions: 490000001 cycles: 951283202 heartbeat IPC: 0.510833 cumulative IPC: 0.514232 (Simulation time: 1 hr 22 min 42 sec) 
Heartbeat CPU 0 instructions: 500000000 cycles: 970850252 heartbeat IPC: 0.511063 cumulative IPC: 0.514168 (Simulation time: 1 hr 24 min 4 sec) 
Heartbeat CPU 0 instructions: 510000002 cycles: 990425895 heartbeat IPC: 0.510839 cumulative IPC: 0.514102 (Simulation time: 1 hr 25 min 26 sec) 
Heartbeat CPU 0 instructions: 520000004 cycles: 1009989502 heartbeat IPC: 0.511153 cumulative IPC: 0.514045 (Simulation time: 1 hr 26 min 49 sec) 
Heartbeat CPU 0 instructions: 530000004 cycles: 1029553934 heartbeat IPC: 0.511132 cumulative IPC: 0.51399 (Simulation time: 1 hr 28 min 11 sec) 
Heartbeat CPU 0 instructions: 540000003 cycles: 1049125991 heartbeat IPC: 0.510932 cumulative IPC: 0.513933 (Simulation time: 1 hr 29 min 33 sec) 
Heartbeat CPU 0 instructions: 550000003 cycles: 1068711348 heartbeat IPC: 0.510586 cumulative IPC: 0.513871 (Simulation time: 1 hr 30 min 55 sec) 
Heartbeat CPU 0 instructions: 560000002 cycles: 1088285745 heartbeat IPC: 0.510871 cumulative IPC: 0.513818 (Simulation time: 1 hr 32 min 18 sec) 
Heartbeat CPU 0 instructions: 570000000 cycles: 1107845610 heartbeat IPC: 0.511251 cumulative IPC: 0.513772 (Simulation time: 1 hr 33 min 40 sec) 
Heartbeat CPU 0 instructions: 580000001 cycles: 1127428638 heartbeat IPC: 0.510646 cumulative IPC: 0.513718 (Simulation time: 1 hr 35 min 2 sec) 
Heartbeat CPU 0 instructions: 590000000 cycles: 1146991476 heartbeat IPC: 0.511173 cumulative IPC: 0.513674 (Simulation time: 1 hr 36 min 24 sec) 
Heartbeat CPU 0 instructions: 600000004 cycles: 1166615113 heartbeat IPC: 0.50959 cumulative IPC: 0.513606 (Simulation time: 1 hr 37 min 47 sec) 
Heartbeat CPU 0 instructions: 610000003 cycles: 1186217172 heartbeat IPC: 0.51015 cumulative IPC: 0.513549 (Simulation time: 1 hr 39 min 9 sec) 
Heartbeat CPU 0 instructions: 620000001 cycles: 1205797848 heartbeat IPC: 0.510707 cumulative IPC: 0.513502 (Simulation time: 1 hr 40 min 32 sec) 
Heartbeat CPU 0 instructions: 630000004 cycles: 1225363112 heartbeat IPC: 0.51111 cumulative IPC: 0.513464 (Simulation time: 1 hr 41 min 54 sec) 
Heartbeat CPU 0 instructions: 640000002 cycles: 1244934788 heartbeat IPC: 0.510942 cumulative IPC: 0.513425 (Simulation time: 1 hr 43 min 16 sec) 
Heartbeat CPU 0 instructions: 650000001 cycles: 1264490827 heartbeat IPC: 0.511351 cumulative IPC: 0.513393 (Simulation time: 1 hr 44 min 38 sec) 
Heartbeat CPU 0 instructions: 660000000 cycles: 1284053983 heartbeat IPC: 0.511165 cumulative IPC: 0.513359 (Simulation time: 1 hr 46 min 0 sec) 
Heartbeat CPU 0 instructions: 670000000 cycles: 1303632071 heartbeat IPC: 0.510775 cumulative IPC: 0.51332 (Simulation time: 1 hr 47 min 23 sec) 
Heartbeat CPU 0 instructions: 680000004 cycles: 1323206961 heartbeat IPC: 0.510859 cumulative IPC: 0.513283 (Simulation time: 1 hr 48 min 45 sec) 
Heartbeat CPU 0 instructions: 690000003 cycles: 1342796755 heartbeat IPC: 0.51047 cumulative IPC: 0.513242 (Simulation time: 1 hr 50 min 7 sec) 
Heartbeat CPU 0 instructions: 700000003 cycles: 1362378758 heartbeat IPC: 0.510673 cumulative IPC: 0.513205 (Simulation time: 1 hr 51 min 29 sec) 
Heartbeat CPU 0 instructions: 710000002 cycles: 1381962961 heartbeat IPC: 0.510616 cumulative IPC: 0.513169 (Simulation time: 1 hr 52 min 51 sec) 
Heartbeat CPU 0 instructions: 720000001 cycles: 1401545588 heartbeat IPC: 0.510657 cumulative IPC: 0.513134 (Simulation time: 1 hr 54 min 14 sec) 
Heartbeat CPU 0 instructions: 730000004 cycles: 1421134246 heartbeat IPC: 0.5105 cumulative IPC: 0.513097 (Simulation time: 1 hr 55 min 36 sec) 
Heartbeat CPU 0 instructions: 740000003 cycles: 1440725312 heartbeat IPC: 0.510437 cumulative IPC: 0.513061 (Simulation time: 1 hr 56 min 58 sec) 
Heartbeat CPU 0 instructions: 750000003 cycles: 1460324819 heartbeat IPC: 0.510217 cumulative IPC: 0.513023 (Simulation time: 1 hr 58 min 20 sec) 
Heartbeat CPU 0 instructions: 760000004 cycles: 1479919290 heartbeat IPC: 0.510348 cumulative IPC: 0.512987 (Simulation time: 1 hr 59 min 43 sec) 
Heartbeat CPU 0 instructions: 770000003 cycles: 1499509112 heartbeat IPC: 0.510469 cumulative IPC: 0.512955 (Simulation time: 2 hr 1 min 5 sec) 
Heartbeat CPU 0 instructions: 780000002 cycles: 1519095211 heartbeat IPC: 0.510566 cumulative IPC: 0.512924 (Simulation time: 2 hr 2 min 27 sec) 
Heartbeat CPU 0 instructions: 790000002 cycles: 1538676415 heartbeat IPC: 0.510694 cumulative IPC: 0.512895 (Simulation time: 2 hr 3 min 50 sec) 
Heartbeat CPU 0 instructions: 800000001 cycles: 1558250593 heartbeat IPC: 0.510877 cumulative IPC: 0.51287 (Simulation time: 2 hr 5 min 12 sec) 
Heartbeat CPU 0 instructions: 810000000 cycles: 1577830372 heartbeat IPC: 0.510731 cumulative IPC: 0.512843 (Simulation time: 2 hr 6 min 34 sec) 
Heartbeat CPU 0 instructions: 820000000 cycles: 1597414856 heartbeat IPC: 0.510608 cumulative IPC: 0.512816 (Simulation time: 2 hr 7 min 56 sec) 
Heartbeat CPU 0 instructions: 830000002 cycles: 1616998096 heartbeat IPC: 0.510641 cumulative IPC: 0.51279 (Simulation time: 2 hr 9 min 19 sec) 
Heartbeat CPU 0 instructions: 840000002 cycles: 1636568004 heartbeat IPC: 0.510989 cumulative IPC: 0.512768 (Simulation time: 2 hr 10 min 41 sec) 
Heartbeat CPU 0 instructions: 850000001 cycles: 1656126099 heartbeat IPC: 0.511297 cumulative IPC: 0.512751 (Simulation time: 2 hr 12 min 3 sec) 
Heartbeat CPU 0 instructions: 860000002 cycles: 1675685118 heartbeat IPC: 0.511273 cumulative IPC: 0.512734 (Simulation time: 2 hr 13 min 25 sec) 
Heartbeat CPU 0 instructions: 870000001 cycles: 1695266255 heartbeat IPC: 0.510696 cumulative IPC: 0.51271 (Simulation time: 2 hr 14 min 48 sec) 
Heartbeat CPU 0 instructions: 880000001 cycles: 1714849849 heartbeat IPC: 0.510632 cumulative IPC: 0.512686 (Simulation time: 2 hr 16 min 10 sec) 
Heartbeat CPU 0 instructions: 890000000 cycles: 1734397576 heartbeat IPC: 0.511568 cumulative IPC: 0.512674 (Simulation time: 2 hr 17 min 32 sec) 
Heartbeat CPU 0 instructions: 900000003 cycles: 1753944455 heartbeat IPC: 0.511591 cumulative IPC: 0.512662 (Simulation time: 2 hr 18 min 54 sec) 
Heartbeat CPU 0 instructions: 910000004 cycles: 1773496640 heartbeat IPC: 0.511452 cumulative IPC: 0.512648 (Simulation time: 2 hr 20 min 16 sec) 
Heartbeat CPU 0 instructions: 920000003 cycles: 1793062945 heartbeat IPC: 0.511083 cumulative IPC: 0.512631 (Simulation time: 2 hr 21 min 39 sec) 
Heartbeat CPU 0 instructions: 930000000 cycles: 1812633273 heartbeat IPC: 0.510978 cumulative IPC: 0.512613 (Simulation time: 2 hr 23 min 1 sec) 
Heartbeat CPU 0 instructions: 940000000 cycles: 1832221374 heartbeat IPC: 0.510514 cumulative IPC: 0.512591 (Simulation time: 2 hr 24 min 23 sec) 
Heartbeat CPU 0 instructions: 950000004 cycles: 1851796390 heartbeat IPC: 0.510855 cumulative IPC: 0.512572 (Simulation time: 2 hr 25 min 45 sec) 
Heartbeat CPU 0 instructions: 960000004 cycles: 1871394954 heartbeat IPC: 0.510241 cumulative IPC: 0.512548 (Simulation time: 2 hr 27 min 8 sec) 
Heartbeat CPU 0 instructions: 970000003 cycles: 1891003825 heartbeat IPC: 0.509973 cumulative IPC: 0.512521 (Simulation time: 2 hr 28 min 30 sec) 
Heartbeat CPU 0 instructions: 980000001 cycles: 1910564852 heartbeat IPC: 0.511221 cumulative IPC: 0.512508 (Simulation time: 2 hr 29 min 52 sec) 
Heartbeat CPU 0 instructions: 990000004 cycles: 1930129315 heartbeat IPC: 0.511131 cumulative IPC: 0.512494 (Simulation time: 2 hr 31 min 14 sec) 
Heartbeat CPU 0 instructions: 1000000001 cycles: 1949723353 heartbeat IPC: 0.510359 cumulative IPC: 0.512473 (Simulation time: 2 hr 32 min 36 sec) 
Finished CPU 0 instructions: 1000000003 cycles: 1951330731 cumulative IPC: 0.512471 (Simulation time: 2 hr 32 min 45 sec) 

ChampSim completed all CPUs

Region of Interest Statistics

CPU 0 cumulative IPC: 0.512471 instructions: 1000000003 cycles: 1951330731
cpu0_DTLB TOTAL     ACCESS:  179299984  HIT:  179066343  MISS:     233641
cpu0_DTLB LOAD      ACCESS:  153400824  HIT:  153169387  MISS:     231437
cpu0_DTLB RFO       ACCESS:   25899160  HIT:   25896956  MISS:       2204
cpu0_DTLB PREFETCH  ACCESS:          0  HIT:          0  MISS:          0
cpu0_DTLB WRITEBACK ACCESS:          0  HIT:          0  MISS:          0
cpu0_DTLB TRANSLATION ACCESS:          0  HIT:          0  MISS:          0
cpu0_DTLB PREFETCH  REQUESTED:          0  ISSUED:          0  USEFUL:          0  USELESS:          0
cpu0_DTLB AVERAGE MISS LATENCY: 131.689 cycles
cpu0_ITLB TOTAL     ACCESS:     349370  HIT:     349359  MISS:         11
cpu0_ITLB LOAD      ACCESS:     349370  HIT:     349359  MISS:         11
cpu0_ITLB RFO       ACCESS:          0  HIT:          0  MISS:          0
cpu0_ITLB PREFETCH  ACCESS:          0  HIT:          0  MISS:          0
cpu0_ITLB WRITEBACK ACCESS:          0  HIT:          0  MISS:          0
cpu0_ITLB TRANSLATION ACCESS:          0  HIT:          0  MISS:          0
cpu0_ITLB PREFETCH  REQUESTED:          0  ISSUED:          0  USEFUL:          0  USELESS:          0
cpu0_ITLB AVERAGE MISS LATENCY: 216.091 cycles
cpu0_L1I TOTAL     ACCESS:     405220  HIT:     404943  MISS:        277
cpu0_L1I LOAD      ACCESS:     405220  HIT:     404943  MISS:        277
cpu0_L1I RFO       ACCESS:          0  HIT:          0  MISS:          0
cpu0_L1I PREFETCH  ACCESS:          0  HIT:          0  MISS:          0
cpu0_L1I WRITEBACK ACCESS:          0  HIT:          0  MISS:          0
cpu0_L1I TRANSLATION ACCESS:          0  HIT:          0  MISS:          0
cpu0_L1I PREFETCH  REQUESTED:          0  ISSUED:          0  USEFUL:          0  USELESS:          0
cpu0_L1I AVERAGE MISS LATENCY: 410.726 cycles
cpu0_STLB TOTAL     ACCESS:     233652  HIT:      96844  MISS:     136808
cpu0_STLB LOAD      ACCESS:     231448  HIT:      94640  MISS:     136808
cpu0_STLB RFO       ACCESS:       2204  HIT:       2204  MISS:          0
cpu0_STLB PREFETCH  ACCESS:          0  HIT:          0  MISS:          0
cpu0_STLB WRITEBACK ACCESS:          0  HIT:          0  MISS:          0
cpu0_STLB TRANSLATION ACCESS:          0  HIT:          0  MISS:          0
cpu0_STLB PREFETCH  REQUESTED:          0  ISSUED:          0  USEFUL:          0  USELESS:          0
cpu0_STLB AVERAGE MISS LATENCY: 209.519 cycles
cpu0_L1D TOTAL     ACCESS:  362430968  HIT:  348985050  MISS:   13445918
cpu0_L1D LOAD      ACCESS:  159011015  HIT:  152832727  MISS:    6178288
cpu0_L1D RFO       ACCESS:   70279867  HIT:   70264977  MISS:      14890
cpu0_L1D PREFETCH  ACCESS:  133003280  HIT:  125755177  MISS:    7248103
cpu0_L1D WRITEBACK ACCESS:          0  HIT:          0  MISS:          0
cpu0_L1D TRANSLATION ACCESS:     136806  HIT:     132169  MISS:       4637
cpu0_L1D PREFETCH  REQUESTED:  165785435  ISSUED:  160533651  USEFUL:   12957605  USELESS:     166139
cpu0_L1D AVERAGE MISS LATENCY: 129.086 cycles
cpu0_L2C TOTAL     ACCESS:   24209959  HIT:   10869532  MISS:   13340427
cpu0_L2C LOAD      ACCESS:     302921  HIT:      17123  MISS:     285798
cpu0_L2C RFO       ACCESS:      14890  HIT:       2002  MISS:      12888
cpu0_L2C PREFETCH  ACCESS:   15130861  HIT:    2093702  MISS:   13037159
cpu0_L2C WRITEBACK ACCESS:    8756650  HIT:    8756642  MISS:          8
cpu0_L2C TRANSLATION ACCESS:       4637  HIT:         63  MISS:       4574
cpu0_L2C PREFETCH  REQUESTED:    2008538  ISSUED:    2008538  USEFUL:     202667  USELESS:       5338
cpu0_L2C AVERAGE MISS LATENCY: 373.089 cycles
LLC TOTAL     ACCESS:   22091908  HIT:   12754899  MISS:    9337009
LLC LOAD      ACCESS:     285796  HIT:     119871  MISS:     165925
LLC RFO       ACCESS:      12888  HIT:      12876  MISS:         12
LLC PREFETCH  ACCESS:   13037256  HIT:    4118599  MISS:    8918657
LLC WRITEBACK ACCESS:    8751394  HIT:    8499272  MISS:     252122
LLC TRANSLATION ACCESS:       4574  HIT:       4281  MISS:        293
LLC PREFETCH  REQUESTED:          0  ISSUED:          0  USEFUL:          0  USELESS:          0
LLC AVERAGE MISS LATENCY: 494.484 cycles

DRAM Statistics
 CHANNEL 0
 RQ ROW_BUFFER_HIT:     308913  ROW_BUFFER_MISS:    8775973
 DBUS AVG_CONGESTED_CYCLE:    3.99506
 WQ ROW_BUFFER_HIT:     429951  ROW_BUFFER_MISS:    8283997  FULL:          0


CPU 0 Branch Prediction Accuracy: 99.865% MPKI: 0.024349 Average ROB Occupancy at Mispredict: 99.8044
Branch type MPKI
BRANCH_DIRECT_JUMP: 8.9e-05
BRANCH_INDIRECT: 0
BRANCH_CONDITIONAL: 0.024228
BRANCH_DIRECT_CALL: 1.6e-05
BRANCH_INDIRECT_CALL: 0
BRANCH_RETURN: 1.6e-05

