
*** ChampSim Multicore Out-of-Order Simulator ***

Warmup Instructions: 1000000
Simulation Instructions: 1000000000
Number of CPUs: 1
Off-chip DRAM Size: 4 GiB Channels: 1 Width: 64-bit Data Rate: 3200 MT/s

VirtualMemory physical capacity: 8588881920 num_ppages: 2096895
VirtualMemory page size: 4096 log2_page_size: 12

CPU 0 runs tracer/pin/traces/spec2k6/456.hmmer-191B.champsimtrace.xz
Basic BTB sets: 1024 ways: 8 indirect buffer size: 4096 RAS size: 64
cpu0_L1D next line prefetcher
cpu0_L2C IP-based stride prefetcher
WARNING: The extended signature CACHE::prefetch_line(ip, base_addr, pf_addr, fill_this_level, prefetch_metadata) is deprecated.
WARNING: Use CACHE::prefetch_line(pf_addr, fill_this_level, prefetch_metadata) instead.

Warmup complete CPU 0 instructions: 1000001 cycles: 395026 (Simulation time: 0 hr 0 min 3 sec) 

Heartbeat CPU 0 instructions: 10000001 cycles: 5582766 heartbeat IPC: 1.79123 cumulative IPC: 1.73486 (Simulation time: 0 hr 0 min 48 sec) 
Heartbeat CPU 0 instructions: 20000001 cycles: 14602570 heartbeat IPC: 1.10867 cumulative IPC: 1.33732 (Simulation time: 0 hr 1 min 50 sec) 
Heartbeat CPU 0 instructions: 30000001 cycles: 25441615 heartbeat IPC: 0.92259 cumulative IPC: 1.15784 (Simulation time: 0 hr 3 min 0 sec) 
Heartbeat CPU 0 instructions: 40000002 cycles: 35465460 heartbeat IPC: 0.997621 cumulative IPC: 1.11205 (Simulation time: 0 hr 4 min 9 sec) 
Heartbeat CPU 0 instructions: 50000001 cycles: 41203720 heartbeat IPC: 1.74269 cumulative IPC: 1.20072 (Simulation time: 0 hr 5 min 5 sec) 
Heartbeat CPU 0 instructions: 60000003 cycles: 45666607 heartbeat IPC: 2.2407 cumulative IPC: 1.30325 (Simulation time: 0 hr 5 min 56 sec) 
Heartbeat CPU 0 instructions: 70000002 cycles: 50269814 heartbeat IPC: 2.1724 cumulative IPC: 1.38346 (Simulation time: 0 hr 6 min 49 sec) 
Heartbeat CPU 0 instructions: 80000001 cycles: 54716403 heartbeat IPC: 2.24891 cumulative IPC: 1.45431 (Simulation time: 0 hr 7 min 42 sec) 
Heartbeat CPU 0 instructions: 90000000 cycles: 59159837 heartbeat IPC: 2.25051 cumulative IPC: 1.51451 (Simulation time: 0 hr 8 min 34 sec) 
Heartbeat CPU 0 instructions: 100000001 cycles: 63628948 heartbeat IPC: 2.23758 cumulative IPC: 1.56562 (Simulation time: 0 hr 9 min 28 sec) 
Heartbeat CPU 0 instructions: 110000003 cycles: 68595821 heartbeat IPC: 2.01334 cumulative IPC: 1.59822 (Simulation time: 0 hr 10 min 25 sec) 
Heartbeat CPU 0 instructions: 120000001 cycles: 73190820 heartbeat IPC: 2.17628 cumulative IPC: 1.63471 (Simulation time: 0 hr 11 min 22 sec) 
Heartbeat CPU 0 instructions: 130000001 cycles: 77747952 heartbeat IPC: 2.19436 cumulative IPC: 1.66768 (Simulation time: 0 hr 12 min 15 sec) 
Heartbeat CPU 0 instructions: 140000004 cycles: 82191806 heartbeat IPC: 2.2503 cumulative IPC: 1.69933 (Simulation time: 0 hr 13 min 10 sec) 
Heartbeat CPU 0 instructions: 150000000 cycles: 86615921 heartbeat IPC: 2.26034 cumulative IPC: 1.72812 (Simulation time: 0 hr 14 min 5 sec) 
Heartbeat CPU 0 instructions: 160000004 cycles: 91414505 heartbeat IPC: 2.08395 cumulative IPC: 1.74688 (Simulation time: 0 hr 15 min 1 sec) 
Heartbeat CPU 0 instructions: 170000002 cycles: 95953798 heartbeat IPC: 2.20299 cumulative IPC: 1.76855 (Simulation time: 0 hr 15 min 58 sec) 
Heartbeat CPU 0 instructions: 180000000 cycles: 103083206 heartbeat IPC: 1.40264 cumulative IPC: 1.74314 (Simulation time: 0 hr 17 min 4 sec) 
Heartbeat CPU 0 instructions: 190000004 cycles: 109468508 heartbeat IPC: 1.5661 cumulative IPC: 1.73278 (Simulation time: 0 hr 18 min 13 sec) 
Heartbeat CPU 0 instructions: 200000000 cycles: 114338172 heartbeat IPC: 2.05353 cumulative IPC: 1.74648 (Simulation time: 0 hr 19 min 14 sec) 
Heartbeat CPU 0 instructions: 210000003 cycles: 121152358 heartbeat IPC: 1.46753 cumulative IPC: 1.73074 (Simulation time: 0 hr 20 min 26 sec) 
Heartbeat CPU 0 instructions: 220000001 cycles: 131427697 heartbeat IPC: 0.973204 cumulative IPC: 1.67134 (Simulation time: 0 hr 21 min 54 sec) 
Heartbeat CPU 0 instructions: 230000003 cycles: 139846899 heartbeat IPC: 1.18776 cumulative IPC: 1.64214 (Simulation time: 0 hr 23 min 14 sec) 
Heartbeat CPU 0 instructions: 240000000 cycles: 144745024 heartbeat IPC: 2.0416 cumulative IPC: 1.6557 (Simulation time: 0 hr 24 min 16 sec) 
Heartbeat CPU 0 instructions: 250000000 cycles: 149240577 heartbeat IPC: 2.22442 cumulative IPC: 1.67287 (Simulation time: 0 hr 25 min 15 sec) 
Heartbeat CPU 0 instructions: 260000000 cycles: 153716917 heartbeat IPC: 2.23397 cumulative IPC: 1.68926 (Simulation time: 0 hr 26 min 14 sec) 
Heartbeat CPU 0 instructions: 270000000 cycles: 158282966 heartbeat IPC: 2.19008 cumulative IPC: 1.70374 (Simulation time: 0 hr 27 min 15 sec) 
Heartbeat CPU 0 instructions: 280000003 cycles: 165932905 heartbeat IPC: 1.3072 cumulative IPC: 1.68541 (Simulation time: 0 hr 28 min 34 sec) 
Heartbeat CPU 0 instructions: 290000002 cycles: 175935675 heartbeat IPC: 0.999723 cumulative IPC: 1.64634 (Simulation time: 0 hr 30 min 10 sec) 
Heartbeat CPU 0 instructions: 300000002 cycles: 183435747 heartbeat IPC: 1.33332 cumulative IPC: 1.63352 (Simulation time: 0 hr 31 min 30 sec) 
Heartbeat CPU 0 instructions: 310000004 cycles: 188212021 heartbeat IPC: 2.09368 cumulative IPC: 1.64522 (Simulation time: 0 hr 32 min 36 sec) 
Heartbeat CPU 0 instructions: 320000001 cycles: 192746778 heartbeat IPC: 2.20519 cumulative IPC: 1.65842 (Simulation time: 0 hr 33 min 39 sec) 
Heartbeat CPU 0 instructions: 330000003 cycles: 200124764 heartbeat IPC: 1.35538 cumulative IPC: 1.64723 (Simulation time: 0 hr 34 min 59 sec) 
Heartbeat CPU 0 instructions: 340000000 cycles: 210406220 heartbeat IPC: 0.972625 cumulative IPC: 1.6142 (Simulation time: 0 hr 36 min 39 sec) 
Heartbeat CPU 0 instructions: 350000002 cycles: 218950930 heartbeat IPC: 1.17031 cumulative IPC: 1.59685 (Simulation time: 0 hr 38 min 7 sec) 
Heartbeat CPU 0 instructions: 360000004 cycles: 223447049 heartbeat IPC: 2.22414 cumulative IPC: 1.60949 (Simulation time: 0 hr 39 min 12 sec) 
Heartbeat CPU 0 instructions: 370000001 cycles: 228193777 heartbeat IPC: 2.10671 cumulative IPC: 1.61985 (Simulation time: 0 hr 40 min 21 sec) 
Heartbeat CPU 0 instructions: 380000003 cycles: 233431164 heartbeat IPC: 1.90935 cumulative IPC: 1.62636 (Simulation time: 0 hr 41 min 35 sec) 
Heartbeat CPU 0 instructions: 390000003 cycles: 238300040 heartbeat IPC: 2.05386 cumulative IPC: 1.63511 (Simulation time: 0 hr 42 min 47 sec) 
Heartbeat CPU 0 instructions: 400000000 cycles: 243185469 heartbeat IPC: 2.0469 cumulative IPC: 1.64339 (Simulation time: 0 hr 43 min 58 sec) 
Heartbeat CPU 0 instructions: 410000004 cycles: 248181599 heartbeat IPC: 2.00155 cumulative IPC: 1.65061 (Simulation time: 0 hr 45 min 9 sec) 
Heartbeat CPU 0 instructions: 420000001 cycles: 253532141 heartbeat IPC: 1.86897 cumulative IPC: 1.65523 (Simulation time: 0 hr 46 min 23 sec) 
Heartbeat CPU 0 instructions: 430000001 cycles: 258831877 heartbeat IPC: 1.88689 cumulative IPC: 1.65998 (Simulation time: 0 hr 47 min 38 sec) 
Heartbeat CPU 0 instructions: 440000000 cycles: 263499856 heartbeat IPC: 2.14225 cumulative IPC: 1.66854 (Simulation time: 0 hr 48 min 49 sec) 
Heartbeat CPU 0 instructions: 450000002 cycles: 267972423 heartbeat IPC: 2.23585 cumulative IPC: 1.67802 (Simulation time: 0 hr 49 min 57 sec) 
Heartbeat CPU 0 instructions: 460000000 cycles: 273108479 heartbeat IPC: 1.94702 cumulative IPC: 1.68309 (Simulation time: 0 hr 51 min 11 sec) 
Heartbeat CPU 0 instructions: 470000004 cycles: 277803677 heartbeat IPC: 2.12984 cumulative IPC: 1.69065 (Simulation time: 0 hr 52 min 22 sec) 
Heartbeat CPU 0 instructions: 480000004 cycles: 282275210 heartbeat IPC: 2.23637 cumulative IPC: 1.6993 (Simulation time: 0 hr 53 min 31 sec) 
Heartbeat CPU 0 instructions: 490000003 cycles: 286744117 heartbeat IPC: 2.23768 cumulative IPC: 1.70771 (Simulation time: 0 hr 54 min 41 sec) 
Heartbeat CPU 0 instructions: 500000002 cycles: 291226974 heartbeat IPC: 2.23072 cumulative IPC: 1.71577 (Simulation time: 0 hr 55 min 49 sec) 
Heartbeat CPU 0 instructions: 510000000 cycles: 295749727 heartbeat IPC: 2.21104 cumulative IPC: 1.72335 (Simulation time: 0 hr 56 min 58 sec) 
Heartbeat CPU 0 instructions: 520000000 cycles: 300742142 heartbeat IPC: 2.00304 cumulative IPC: 1.728 (Simulation time: 0 hr 58 min 11 sec) 
Heartbeat CPU 0 instructions: 530000000 cycles: 305353456 heartbeat IPC: 2.16858 cumulative IPC: 1.73466 (Simulation time: 0 hr 59 min 23 sec) 
Heartbeat CPU 0 instructions: 540000002 cycles: 309829799 heartbeat IPC: 2.23397 cumulative IPC: 1.74189 (Simulation time: 1 hr 0 min 33 sec) 
Heartbeat CPU 0 instructions: 550000003 cycles: 314316428 heartbeat IPC: 2.22885 cumulative IPC: 1.74885 (Simulation time: 1 hr 1 min 43 sec) 
Heartbeat CPU 0 instructions: 560000001 cycles: 318783209 heartbeat IPC: 2.23875 cumulative IPC: 1.75572 (Simulation time: 1 hr 2 min 52 sec) 
Heartbeat CPU 0 instructions: 570000004 cycles: 323309187 heartbeat IPC: 2.20947 cumulative IPC: 1.76208 (Simulation time: 1 hr 4 min 0 sec) 
Heartbeat CPU 0 instructions: 580000002 cycles: 328093184 heartbeat IPC: 2.0903 cumulative IPC: 1.76687 (Simulation time: 1 hr 5 min 9 sec) 
Heartbeat CPU 0 instructions: 590000000 cycles: 332738596 heartbeat IPC: 2.15266 cumulative IPC: 1.77226 (Simulation time: 1 hr 6 min 16 sec) 
Heartbeat CPU 0 instructions: 600000001 cycles: 337246104 heartbeat IPC: 2.21852 cumulative IPC: 1.77823 (Simulation time: 1 hr 7 min 23 sec) 
Heartbeat CPU 0 instructions: 610000003 cycles: 341761977 heartbeat IPC: 2.21441 cumulative IPC: 1.784 (Simulation time: 1 hr 8 min 28 sec) 
Heartbeat CPU 0 instructions: 620000003 cycles: 346254863 heartbeat IPC: 2.22574 cumulative IPC: 1.78974 (Simulation time: 1 hr 9 min 33 sec) 
Heartbeat CPU 0 instructions: 630000001 cycles: 350764746 heartbeat IPC: 2.21735 cumulative IPC: 1.79525 (Simulation time: 1 hr 10 min 39 sec) 
Heartbeat CPU 0 instructions: 640000002 cycles: 355275507 heartbeat IPC: 2.21692 cumulative IPC: 1.80061 (Simulation time: 1 hr 11 min 44 sec) 
Heartbeat CPU 0 instructions: 650000000 cycles: 359779089 heartbeat IPC: 2.22045 cumulative IPC: 1.80587 (Simulation time: 1 hr 12 min 49 sec) 
Heartbeat CPU 0 instructions: 660000004 cycles: 364266168 heartbeat IPC: 2.22862 cumulative IPC: 1.81108 (Simulation time: 1 hr 13 min 55 sec) 
Heartbeat CPU 0 instructions: 670000001 cycles: 368756359 heartbeat IPC: 2.22708 cumulative IPC: 1.81615 (Simulation time: 1 hr 15 min 2 sec) 
Heartbeat CPU 0 instructions: 680000001 cycles: 373259409 heartbeat IPC: 2.22072 cumulative IPC: 1.82104 (Simulation time: 1 hr 16 min 7 sec) 
Heartbeat CPU 0 instructions: 690000001 cycles: 377766267 heartbeat IPC: 2.21884 cumulative IPC: 1.82579 (Simulation time: 1 hr 17 min 12 sec) 
Heartbeat CPU 0 instructions: 700000001 cycles: 382662233 heartbeat IPC: 2.0425 cumulative IPC: 1.82856 (Simulation time: 1 hr 18 min 21 sec) 
Heartbeat CPU 0 instructions: 710000001 cycles: 387376897 heartbeat IPC: 2.12104 cumulative IPC: 1.83213 (Simulation time: 1 hr 19 min 28 sec) 
Heartbeat CPU 0 instructions: 720000004 cycles: 391892967 heartbeat IPC: 2.21432 cumulative IPC: 1.83654 (Simulation time: 1 hr 20 min 36 sec) 
Heartbeat CPU 0 instructions: 730000000 cycles: 396404885 heartbeat IPC: 2.21635 cumulative IPC: 1.84086 (Simulation time: 1 hr 21 min 42 sec) 
Heartbeat CPU 0 instructions: 740000004 cycles: 400909748 heartbeat IPC: 2.21982 cumulative IPC: 1.84513 (Simulation time: 1 hr 22 min 47 sec) 
Heartbeat CPU 0 instructions: 750000001 cycles: 405413311 heartbeat IPC: 2.22046 cumulative IPC: 1.8493 (Simulation time: 1 hr 23 min 51 sec) 
Heartbeat CPU 0 instructions: 760000002 cycles: 409905965 heartbeat IPC: 2.22586 cumulative IPC: 1.85343 (Simulation time: 1 hr 24 min 57 sec) 
Heartbeat CPU 0 instructions: 770000000 cycles: 414384971 heartbeat IPC: 2.23264 cumulative IPC: 1.85753 (Simulation time: 1 hr 25 min 59 sec) 
Heartbeat CPU 0 instructions: 780000002 cycles: 418861934 heartbeat IPC: 2.23366 cumulative IPC: 1.86156 (Simulation time: 1 hr 27 min 1 sec) 
Heartbeat CPU 0 instructions: 790000001 cycles: 423366721 heartbeat IPC: 2.21986 cumulative IPC: 1.86537 (Simulation time: 1 hr 28 min 3 sec) 
Heartbeat CPU 0 instructions: 800000001 cycles: 427874662 heartbeat IPC: 2.21831 cumulative IPC: 1.86909 (Simulation time: 1 hr 29 min 6 sec) 
Heartbeat CPU 0 instructions: 810000002 cycles: 432381573 heartbeat IPC: 2.21881 cumulative IPC: 1.87274 (Simulation time: 1 hr 30 min 7 sec) 
Heartbeat CPU 0 instructions: 820000000 cycles: 436856188 heartbeat IPC: 2.23483 cumulative IPC: 1.87646 (Simulation time: 1 hr 31 min 9 sec) 
Heartbeat CPU 0 instructions: 830000003 cycles: 441360859 heartbeat IPC: 2.21992 cumulative IPC: 1.87996 (Simulation time: 1 hr 32 min 10 sec) 
Heartbeat CPU 0 instructions: 840000000 cycles: 449370414 heartbeat IPC: 1.24851 cumulative IPC: 1.8687 (Simulation time: 1 hr 33 min 35 sec) 
Heartbeat CPU 0 instructions: 850000002 cycles: 457841066 heartbeat IPC: 1.18055 cumulative IPC: 1.85596 (Simulation time: 1 hr 35 min 1 sec) 
Heartbeat CPU 0 instructions: 860000000 cycles: 466055518 heartbeat IPC: 1.21737 cumulative IPC: 1.84469 (Simulation time: 1 hr 36 min 23 sec) 
Heartbeat CPU 0 instructions: 870000002 cycles: 473989870 heartbeat IPC: 1.26034 cumulative IPC: 1.8349 (Simulation time: 1 hr 37 min 43 sec) 
Heartbeat CPU 0 instructions: 880000002 cycles: 481775807 heartbeat IPC: 1.28437 cumulative IPC: 1.826 (Simulation time: 1 hr 39 min 2 sec) 
Heartbeat CPU 0 instructions: 890000002 cycles: 489306415 heartbeat IPC: 1.32791 cumulative IPC: 1.81833 (Simulation time: 1 hr 40 min 22 sec) 
Heartbeat CPU 0 instructions: 900000001 cycles: 494214955 heartbeat IPC: 2.03727 cumulative IPC: 1.8205 (Simulation time: 1 hr 41 min 25 sec) 
Heartbeat CPU 0 instructions: 910000000 cycles: 498646970 heartbeat IPC: 2.25631 cumulative IPC: 1.82438 (Simulation time: 1 hr 42 min 25 sec) 
Heartbeat CPU 0 instructions: 920000000 cycles: 503212532 heartbeat IPC: 2.19031 cumulative IPC: 1.8277 (Simulation time: 1 hr 43 min 29 sec) 
Heartbeat CPU 0 instructions: 930000001 cycles: 511508136 heartbeat IPC: 1.20546 cumulative IPC: 1.8176 (Simulation time: 1 hr 44 min 55 sec) 
Heartbeat CPU 0 instructions: 940000004 cycles: 518554286 heartbeat IPC: 1.41922 cumulative IPC: 1.81218 (Simulation time: 1 hr 46 min 15 sec) 
Heartbeat CPU 0 instructions: 950000000 cycles: 524947560 heartbeat IPC: 1.56414 cumulative IPC: 1.80916 (Simulation time: 1 hr 47 min 32 sec) 
Heartbeat CPU 0 instructions: 960000004 cycles: 529567943 heartbeat IPC: 2.16432 cumulative IPC: 1.81226 (Simulation time: 1 hr 48 min 40 sec) 
Heartbeat CPU 0 instructions: 970000002 cycles: 535738309 heartbeat IPC: 1.62065 cumulative IPC: 1.81005 (Simulation time: 1 hr 49 min 59 sec) 
Heartbeat CPU 0 instructions: 980000004 cycles: 542068087 heartbeat IPC: 1.57983 cumulative IPC: 1.80736 (Simulation time: 1 hr 51 min 16 sec) 
Heartbeat CPU 0 instructions: 990000002 cycles: 547439853 heartbeat IPC: 1.86158 cumulative IPC: 1.8079 (Simulation time: 1 hr 52 min 27 sec) 
Heartbeat CPU 0 instructions: 1000000000 cycles: 551969052 heartbeat IPC: 2.2079 cumulative IPC: 1.81118 (Simulation time: 1 hr 53 min 33 sec) 
Finished CPU 0 instructions: 1000000001 cycles: 552018557 cumulative IPC: 1.81153 (Simulation time: 1 hr 53 min 40 sec) 

ChampSim completed all CPUs

Region of Interest Statistics

CPU 0 cumulative IPC: 1.81153 instructions: 1000000001 cycles: 552018557
cpu0_DTLB TOTAL     ACCESS:  381609984  HIT:  381541885  MISS:      68099
cpu0_DTLB LOAD      ACCESS:  292135139  HIT:  292110855  MISS:      24284
cpu0_DTLB RFO       ACCESS:   89474845  HIT:   89431030  MISS:      43815
cpu0_DTLB PREFETCH  ACCESS:          0  HIT:          0  MISS:          0
cpu0_DTLB WRITEBACK ACCESS:          0  HIT:          0  MISS:          0
cpu0_DTLB TRANSLATION ACCESS:          0  HIT:          0  MISS:          0
cpu0_DTLB PREFETCH  REQUESTED:          0  ISSUED:          0  USEFUL:          0  USELESS:          0
cpu0_DTLB AVERAGE MISS LATENCY: 12.8764 cycles
cpu0_ITLB TOTAL     ACCESS:   15565169  HIT:   15565136  MISS:         33
cpu0_ITLB LOAD      ACCESS:   15565169  HIT:   15565136  MISS:         33
cpu0_ITLB RFO       ACCESS:          0  HIT:          0  MISS:          0
cpu0_ITLB PREFETCH  ACCESS:          0  HIT:          0  MISS:          0
cpu0_ITLB WRITEBACK ACCESS:          0  HIT:          0  MISS:          0
cpu0_ITLB TRANSLATION ACCESS:          0  HIT:          0  MISS:          0
cpu0_ITLB PREFETCH  REQUESTED:          0  ISSUED:          0  USEFUL:          0  USELESS:          0
cpu0_ITLB AVERAGE MISS LATENCY: 272.636 cycles
cpu0_L1I TOTAL     ACCESS:     824936  HIT:     824610  MISS:        326
cpu0_L1I LOAD      ACCESS:     824936  HIT:     824610  MISS:        326
cpu0_L1I RFO       ACCESS:          0  HIT:          0  MISS:          0
cpu0_L1I PREFETCH  ACCESS:          0  HIT:          0  MISS:          0
cpu0_L1I WRITEBACK ACCESS:          0  HIT:          0  MISS:          0
cpu0_L1I TRANSLATION ACCESS:          0  HIT:          0  MISS:          0
cpu0_L1I PREFETCH  REQUESTED:          0  ISSUED:          0  USEFUL:          0  USELESS:          0
cpu0_L1I AVERAGE MISS LATENCY: 565.411 cycles
cpu0_STLB TOTAL     ACCESS:      68132  HIT:      66913  MISS:       1219
cpu0_STLB LOAD      ACCESS:      24317  HIT:      24220  MISS:         97
cpu0_STLB RFO       ACCESS:      43815  HIT:      42693  MISS:       1122
cpu0_STLB PREFETCH  ACCESS:          0  HIT:          0  MISS:          0
cpu0_STLB WRITEBACK ACCESS:          0  HIT:          0  MISS:          0
cpu0_STLB TRANSLATION ACCESS:          0  HIT:          0  MISS:          0
cpu0_STLB PREFETCH  REQUESTED:          0  ISSUED:          0  USEFUL:          0  USELESS:          0
cpu0_STLB AVERAGE MISS LATENCY: 223.078 cycles
cpu0_L1D TOTAL     ACCESS:  680120388  HIT:  674657821  MISS:    5462567
cpu0_L1D LOAD      ACCESS:  319655541  HIT:  319258773  MISS:     396768
cpu0_L1D RFO       ACCESS:   68541232  HIT:   67390455  MISS:    1150777
cpu0_L1D PREFETCH  ACCESS:  291922748  HIT:  288008200  MISS:    3914548
cpu0_L1D WRITEBACK ACCESS:          0  HIT:          0  MISS:          0
cpu0_L1D TRANSLATION ACCESS:        867  HIT:        393  MISS:        474
cpu0_L1D PREFETCH  REQUESTED:  320043409  ISSUED:  295938763  USEFUL:    4091648  USELESS:      48357
cpu0_L1D AVERAGE MISS LATENCY: 110.725 cycles
cpu0_L2C TOTAL     ACCESS:    8291336  HIT:    5269169  MISS:    3022167
cpu0_L2C LOAD      ACCESS:     393122  HIT:     323447  MISS:      69675
cpu0_L2C RFO       ACCESS:     928944  HIT:       4411  MISS:     924533
cpu0_L2C PREFETCH  ACCESS:    4294258  HIT:    2266718  MISS:    2027540
cpu0_L2C WRITEBACK ACCESS:    2674538  HIT:    2674161  MISS:        377
cpu0_L2C TRANSLATION ACCESS:        474  HIT:        432  MISS:         42
cpu0_L2C PREFETCH  REQUESTED:     164981  ISSUED:     161220  USEFUL:       7677  USELESS:       7820
cpu0_L2C AVERAGE MISS LATENCY: 278.252 cycles
LLC TOTAL     ACCESS:    5681996  HIT:    4813539  MISS:     868457
LLC LOAD      ACCESS:      69675  HIT:      63480  MISS:       6195
LLC RFO       ACCESS:     924533  HIT:     630625  MISS:     293908
LLC PREFETCH  ACCESS:    2028082  HIT:    1479917  MISS:     548165
LLC WRITEBACK ACCESS:    2659664  HIT:    2639494  MISS:      20170
LLC TRANSLATION ACCESS:         42  HIT:         23  MISS:         19
LLC PREFETCH  REQUESTED:          0  ISSUED:          0  USEFUL:          0  USELESS:          0
LLC AVERAGE MISS LATENCY: 874.955 cycles

DRAM Statistics
 CHANNEL 0
 RQ ROW_BUFFER_HIT:       8665  ROW_BUFFER_MISS:     839095
 DBUS AVG_CONGESTED_CYCLE:    3.99302
 WQ ROW_BUFFER_HIT:      87699  ROW_BUFFER_MISS:     686328  FULL:          0


CPU 0 Branch Prediction Accuracy: 99.3347% MPKI: 0.294153 Average ROB Occupancy at Mispredict: 80.3381
Branch type MPKI
BRANCH_DIRECT_JUMP: 6.9e-05
BRANCH_INDIRECT: 0.000371
BRANCH_CONDITIONAL: 0.293517
BRANCH_DIRECT_CALL: 8.5e-05
BRANCH_INDIRECT_CALL: 2.7e-05
BRANCH_RETURN: 8.4e-05

