
*** ChampSim Multicore Out-of-Order Simulator ***

Warmup Instructions: 200000000
Simulation Instructions: 1000000000
Number of CPUs: 1
Off-chip DRAM Size: 4 GiB Channels: 1 Width: 64-bit Data Rate: 3200 MT/s

VirtualMemory physical capacity: 8588881920 num_ppages: 2096895
VirtualMemory page size: 4096 log2_page_size: 12

CPU 0 runs tracer/pin/traces/pr-urand-603B.champsim.xz
Basic BTB sets: 1024 ways: 8 indirect buffer size: 4096 RAS size: 64
cpu0_L1D next line prefetcher
cpu0_L2C IP-based stride prefetcher
WARNING: The extended signature CACHE::prefetch_line(ip, base_addr, pf_addr, fill_this_level, prefetch_metadata) is deprecated.
WARNING: Use CACHE::prefetch_line(pf_addr, fill_this_level, prefetch_metadata) instead.
Heartbeat CPU 0 instructions: 10000003 cycles: 3870519 heartbeat IPC: 2.58363 cumulative IPC: 2.58363 (Simulation time: 0 hr 44 min 24 sec) 
Heartbeat CPU 0 instructions: 20000000 cycles: 7741064 heartbeat IPC: 2.58361 cumulative IPC: 2.58362 (Simulation time: 0 hr 45 min 26 sec) 
Heartbeat CPU 0 instructions: 30000002 cycles: 11611415 heartbeat IPC: 2.58375 cumulative IPC: 2.58366 (Simulation time: 0 hr 46 min 30 sec) 
Heartbeat CPU 0 instructions: 40000004 cycles: 15481900 heartbeat IPC: 2.58366 cumulative IPC: 2.58366 (Simulation time: 0 hr 47 min 34 sec) 
Heartbeat CPU 0 instructions: 50000000 cycles: 19352488 heartbeat IPC: 2.58359 cumulative IPC: 2.58365 (Simulation time: 0 hr 48 min 42 sec) 
Heartbeat CPU 0 instructions: 60000002 cycles: 23222942 heartbeat IPC: 2.58368 cumulative IPC: 2.58365 (Simulation time: 0 hr 49 min 46 sec) 
Heartbeat CPU 0 instructions: 70000004 cycles: 27093273 heartbeat IPC: 2.58376 cumulative IPC: 2.58367 (Simulation time: 0 hr 50 min 53 sec) 
Heartbeat CPU 0 instructions: 80000004 cycles: 30963572 heartbeat IPC: 2.58378 cumulative IPC: 2.58368 (Simulation time: 0 hr 52 min 0 sec) 
Heartbeat CPU 0 instructions: 90000001 cycles: 34833855 heartbeat IPC: 2.58379 cumulative IPC: 2.58369 (Simulation time: 0 hr 53 min 6 sec) 
Heartbeat CPU 0 instructions: 100000001 cycles: 38704264 heartbeat IPC: 2.58371 cumulative IPC: 2.58369 (Simulation time: 0 hr 54 min 12 sec) 
Heartbeat CPU 0 instructions: 110000004 cycles: 42574743 heartbeat IPC: 2.58366 cumulative IPC: 2.58369 (Simulation time: 0 hr 55 min 18 sec) 
Heartbeat CPU 0 instructions: 120000002 cycles: 46445197 heartbeat IPC: 2.58368 cumulative IPC: 2.58369 (Simulation time: 0 hr 56 min 22 sec) 
Heartbeat CPU 0 instructions: 130000004 cycles: 50315874 heartbeat IPC: 2.58353 cumulative IPC: 2.58368 (Simulation time: 0 hr 57 min 27 sec) 
Heartbeat CPU 0 instructions: 140000002 cycles: 54186409 heartbeat IPC: 2.58362 cumulative IPC: 2.58367 (Simulation time: 0 hr 58 min 33 sec) 
Heartbeat CPU 0 instructions: 150000002 cycles: 58056742 heartbeat IPC: 2.58376 cumulative IPC: 2.58368 (Simulation time: 0 hr 59 min 39 sec) 
Heartbeat CPU 0 instructions: 160000004 cycles: 61927164 heartbeat IPC: 2.5837 cumulative IPC: 2.58368 (Simulation time: 1 hr 0 min 44 sec) 
Heartbeat CPU 0 instructions: 170000000 cycles: 65797816 heartbeat IPC: 2.58354 cumulative IPC: 2.58367 (Simulation time: 1 hr 1 min 50 sec) 
Heartbeat CPU 0 instructions: 180000001 cycles: 69668337 heartbeat IPC: 2.58363 cumulative IPC: 2.58367 (Simulation time: 1 hr 2 min 55 sec) 
Heartbeat CPU 0 instructions: 190000003 cycles: 73538734 heartbeat IPC: 2.58371 cumulative IPC: 2.58367 (Simulation time: 1 hr 4 min 1 sec) 
Heartbeat CPU 0 instructions: 200000004 cycles: 77409374 heartbeat IPC: 2.58355 cumulative IPC: 2.58367 (Simulation time: 1 hr 5 min 6 sec) 

Warmup complete CPU 0 instructions: 200000004 cycles: 77409374 (Simulation time: 1 hr 5 min 6 sec) 

Heartbeat CPU 0 instructions: 210000001 cycles: 711602681 heartbeat IPC: 0.0157681 cumulative IPC: 0.0157681 (Simulation time: 1 hr 52 min 48 sec) 
Heartbeat CPU 0 instructions: 220000000 cycles: 1345678193 heartbeat IPC: 0.015771 cumulative IPC: 0.0157695 (Simulation time: 2 hr 42 min 29 sec) 
Heartbeat CPU 0 instructions: 230000001 cycles: 1979858068 heartbeat IPC: 0.0157684 cumulative IPC: 0.0157691 (Simulation time: 3 hr 33 min 4 sec) 
Heartbeat CPU 0 instructions: 240000003 cycles: 2614192952 heartbeat IPC: 0.0157645 cumulative IPC: 0.015768 (Simulation time: 4 hr 14 min 48 sec) 
Heartbeat CPU 0 instructions: 250000003 cycles: 3248363095 heartbeat IPC: 0.0157686 cumulative IPC: 0.0157681 (Simulation time: 4 hr 51 min 16 sec) 
Heartbeat CPU 0 instructions: 260000002 cycles: 3882463444 heartbeat IPC: 0.0157704 cumulative IPC: 0.0157685 (Simulation time: 5 hr 21 min 56 sec) 
Heartbeat CPU 0 instructions: 270000003 cycles: 4516632658 heartbeat IPC: 0.0157687 cumulative IPC: 0.0157685 (Simulation time: 5 hr 58 min 6 sec) 
Heartbeat CPU 0 instructions: 280000002 cycles: 5150823223 heartbeat IPC: 0.0157681 cumulative IPC: 0.0157685 (Simulation time: 6 hr 49 min 0 sec) 
Heartbeat CPU 0 instructions: 290000003 cycles: 5784870296 heartbeat IPC: 0.0157717 cumulative IPC: 0.0157688 (Simulation time: 7 hr 31 min 55 sec) 
Heartbeat CPU 0 instructions: 300000002 cycles: 6418985571 heartbeat IPC: 0.01577 cumulative IPC: 0.015769 (Simulation time: 8 hr 13 min 41 sec) 
Heartbeat CPU 0 instructions: 310000000 cycles: 7053128615 heartbeat IPC: 0.0157693 cumulative IPC: 0.015769 (Simulation time: 8 hr 48 min 7 sec) 
Heartbeat CPU 0 instructions: 320000003 cycles: 7687260691 heartbeat IPC: 0.0157696 cumulative IPC: 0.015769 (Simulation time: 9 hr 17 min 32 sec) 
Heartbeat CPU 0 instructions: 330000002 cycles: 8321370436 heartbeat IPC: 0.0157701 cumulative IPC: 0.0157691 (Simulation time: 9 hr 46 min 41 sec) 
Heartbeat CPU 0 instructions: 340000000 cycles: 8955532923 heartbeat IPC: 0.0157688 cumulative IPC: 0.0157691 (Simulation time: 10 hr 15 min 51 sec) 
Heartbeat CPU 0 instructions: 350000003 cycles: 9589642291 heartbeat IPC: 0.0157702 cumulative IPC: 0.0157692 (Simulation time: 10 hr 45 min 0 sec) 
Heartbeat CPU 0 instructions: 360000000 cycles: 10223866076 heartbeat IPC: 0.0157673 cumulative IPC: 0.0157691 (Simulation time: 11 hr 14 min 9 sec) 
Heartbeat CPU 0 instructions: 370000003 cycles: 10857999555 heartbeat IPC: 0.0157696 cumulative IPC: 0.0157691 (Simulation time: 11 hr 43 min 17 sec) 
Heartbeat CPU 0 instructions: 380000003 cycles: 11492110151 heartbeat IPC: 0.0157701 cumulative IPC: 0.0157691 (Simulation time: 12 hr 12 min 25 sec) 
Heartbeat CPU 0 instructions: 390000002 cycles: 12126149524 heartbeat IPC: 0.0157719 cumulative IPC: 0.0157693 (Simulation time: 12 hr 41 min 33 sec) 
Heartbeat CPU 0 instructions: 400000002 cycles: 12760337692 heartbeat IPC: 0.0157682 cumulative IPC: 0.0157692 (Simulation time: 13 hr 10 min 41 sec) 
Heartbeat CPU 0 instructions: 410000004 cycles: 13394523908 heartbeat IPC: 0.0157682 cumulative IPC: 0.0157692 (Simulation time: 13 hr 39 min 48 sec) 
Heartbeat CPU 0 instructions: 420000003 cycles: 14028898289 heartbeat IPC: 0.0157636 cumulative IPC: 0.0157689 (Simulation time: 14 hr 8 min 56 sec) 
Heartbeat CPU 0 instructions: 430000004 cycles: 14662938566 heartbeat IPC: 0.0157719 cumulative IPC: 0.0157691 (Simulation time: 14 hr 38 min 3 sec) 
Heartbeat CPU 0 instructions: 440000004 cycles: 15297094150 heartbeat IPC: 0.015769 cumulative IPC: 0.0157691 (Simulation time: 15 hr 7 min 10 sec) 
Heartbeat CPU 0 instructions: 450000003 cycles: 15931483789 heartbeat IPC: 0.0157632 cumulative IPC: 0.0157688 (Simulation time: 15 hr 36 min 19 sec) 
Heartbeat CPU 0 instructions: 460000004 cycles: 16565695118 heartbeat IPC: 0.0157676 cumulative IPC: 0.0157688 (Simulation time: 16 hr 5 min 26 sec) 
Heartbeat CPU 0 instructions: 470000003 cycles: 17199925345 heartbeat IPC: 0.0157671 cumulative IPC: 0.0157687 (Simulation time: 16 hr 34 min 35 sec) 
Heartbeat CPU 0 instructions: 480000002 cycles: 17833940409 heartbeat IPC: 0.0157725 cumulative IPC: 0.0157688 (Simulation time: 17 hr 3 min 42 sec) 
Heartbeat CPU 0 instructions: 490000004 cycles: 18468845581 heartbeat IPC: 0.0157504 cumulative IPC: 0.0157682 (Simulation time: 17 hr 32 min 51 sec) 
Heartbeat CPU 0 instructions: 500000003 cycles: 19103034430 heartbeat IPC: 0.0157682 cumulative IPC: 0.0157682 (Simulation time: 18 hr 1 min 58 sec) 
Heartbeat CPU 0 instructions: 510000002 cycles: 19737205405 heartbeat IPC: 0.0157686 cumulative IPC: 0.0157682 (Simulation time: 18 hr 31 min 4 sec) 
Heartbeat CPU 0 instructions: 520000003 cycles: 20371345141 heartbeat IPC: 0.0157694 cumulative IPC: 0.0157683 (Simulation time: 19 hr 0 min 11 sec) 
Heartbeat CPU 0 instructions: 530000004 cycles: 21005461328 heartbeat IPC: 0.01577 cumulative IPC: 0.0157683 (Simulation time: 19 hr 29 min 18 sec) 
Heartbeat CPU 0 instructions: 540000004 cycles: 21639592101 heartbeat IPC: 0.0157696 cumulative IPC: 0.0157683 (Simulation time: 19 hr 58 min 25 sec) 
Heartbeat CPU 0 instructions: 550000002 cycles: 22273832761 heartbeat IPC: 0.0157669 cumulative IPC: 0.0157683 (Simulation time: 20 hr 27 min 32 sec) 
Heartbeat CPU 0 instructions: 560000000 cycles: 22908014610 heartbeat IPC: 0.0157683 cumulative IPC: 0.0157683 (Simulation time: 20 hr 56 min 39 sec) 
Heartbeat CPU 0 instructions: 570000002 cycles: 23542278171 heartbeat IPC: 0.0157663 cumulative IPC: 0.0157683 (Simulation time: 21 hr 25 min 47 sec) 
Heartbeat CPU 0 instructions: 580000004 cycles: 24176410440 heartbeat IPC: 0.0157696 cumulative IPC: 0.0157683 (Simulation time: 21 hr 54 min 53 sec) 
Heartbeat CPU 0 instructions: 590000004 cycles: 24810626349 heartbeat IPC: 0.0157675 cumulative IPC: 0.0157683 (Simulation time: 22 hr 24 min 0 sec) 
Heartbeat CPU 0 instructions: 600000000 cycles: 25444945159 heartbeat IPC: 0.0157649 cumulative IPC: 0.0157682 (Simulation time: 22 hr 53 min 7 sec) 
Heartbeat CPU 0 instructions: 610000003 cycles: 26079110045 heartbeat IPC: 0.0157688 cumulative IPC: 0.0157682 (Simulation time: 23 hr 22 min 14 sec) 
Heartbeat CPU 0 instructions: 620000003 cycles: 26713215354 heartbeat IPC: 0.0157703 cumulative IPC: 0.0157682 (Simulation time: 23 hr 51 min 20 sec) 
Heartbeat CPU 0 instructions: 630000002 cycles: 27347433836 heartbeat IPC: 0.0157674 cumulative IPC: 0.0157682 (Simulation time: 24 hr 20 min 27 sec) 
Heartbeat CPU 0 instructions: 640000004 cycles: 27981563049 heartbeat IPC: 0.0157697 cumulative IPC: 0.0157683 (Simulation time: 24 hr 49 min 34 sec) 
Heartbeat CPU 0 instructions: 650000002 cycles: 28615593966 heartbeat IPC: 0.0157721 cumulative IPC: 0.0157683 (Simulation time: 25 hr 18 min 40 sec) 
Heartbeat CPU 0 instructions: 660000001 cycles: 29249742849 heartbeat IPC: 0.0157692 cumulative IPC: 0.0157684 (Simulation time: 25 hr 47 min 46 sec) 
