
*** ChampSim Multicore Out-of-Order Simulator ***

Warmup Instructions: 1000000
Simulation Instructions: 1000000000
Number of CPUs: 1
Off-chip DRAM Size: 4 GiB Channels: 1 Width: 64-bit Data Rate: 3200 MT/s

VirtualMemory physical capacity: 8588881920 num_ppages: 2096895
VirtualMemory page size: 4096 log2_page_size: 12

CPU 0 runs tracer/pin/traces/spec2k6/458.sjeng-1088B.champsimtrace.xz
Basic BTB sets: 1024 ways: 8 indirect buffer size: 4096 RAS size: 64
cpu0_L1D next line prefetcher
cpu0_L2C IP-based stride prefetcher
WARNING: The extended signature CACHE::prefetch_line(ip, base_addr, pf_addr, fill_this_level, prefetch_metadata) is deprecated.
WARNING: Use CACHE::prefetch_line(pf_addr, fill_this_level, prefetch_metadata) instead.

Warmup complete CPU 0 instructions: 1000004 cycles: 251238 (Simulation time: 0 hr 0 min 2 sec) 

Heartbeat CPU 0 instructions: 10000000 cycles: 9847455 heartbeat IPC: 1.01549 cumulative IPC: 0.937869 (Simulation time: 0 hr 0 min 38 sec) 
Heartbeat CPU 0 instructions: 20000001 cycles: 20442224 heartbeat IPC: 0.943862 cumulative IPC: 0.941014 (Simulation time: 0 hr 1 min 20 sec) 
Heartbeat CPU 0 instructions: 30000001 cycles: 30802602 heartbeat IPC: 0.965216 cumulative IPC: 0.949221 (Simulation time: 0 hr 2 min 1 sec) 
Heartbeat CPU 0 instructions: 40000000 cycles: 40971714 heartbeat IPC: 0.98337 cumulative IPC: 0.957749 (Simulation time: 0 hr 2 min 40 sec) 
Heartbeat CPU 0 instructions: 50000001 cycles: 51377253 heartbeat IPC: 0.961027 cumulative IPC: 0.958416 (Simulation time: 0 hr 3 min 23 sec) 
Heartbeat CPU 0 instructions: 60000004 cycles: 61623978 heartbeat IPC: 0.975922 cumulative IPC: 0.961339 (Simulation time: 0 hr 4 min 8 sec) 
Heartbeat CPU 0 instructions: 70000002 cycles: 71851240 heartbeat IPC: 0.977779 cumulative IPC: 0.963687 (Simulation time: 0 hr 4 min 50 sec) 
Heartbeat CPU 0 instructions: 80000003 cycles: 81871636 heartbeat IPC: 0.997965 cumulative IPC: 0.967895 (Simulation time: 0 hr 5 min 32 sec) 
Heartbeat CPU 0 instructions: 90000001 cycles: 91979651 heartbeat IPC: 0.989314 cumulative IPC: 0.970255 (Simulation time: 0 hr 6 min 14 sec) 
Heartbeat CPU 0 instructions: 100000004 cycles: 102104562 heartbeat IPC: 0.987663 cumulative IPC: 0.971986 (Simulation time: 0 hr 6 min 58 sec) 
Heartbeat CPU 0 instructions: 110000003 cycles: 112269418 heartbeat IPC: 0.983782 cumulative IPC: 0.973056 (Simulation time: 0 hr 7 min 42 sec) 
Heartbeat CPU 0 instructions: 120000000 cycles: 122465161 heartbeat IPC: 0.980801 cumulative IPC: 0.973702 (Simulation time: 0 hr 8 min 24 sec) 
Heartbeat CPU 0 instructions: 130000002 cycles: 132334767 heartbeat IPC: 1.01321 cumulative IPC: 0.976655 (Simulation time: 0 hr 9 min 7 sec) 
Heartbeat CPU 0 instructions: 140000000 cycles: 142435201 heartbeat IPC: 0.990056 cumulative IPC: 0.977607 (Simulation time: 0 hr 9 min 50 sec) 
Heartbeat CPU 0 instructions: 150000003 cycles: 152454219 heartbeat IPC: 0.998102 cumulative IPC: 0.978956 (Simulation time: 0 hr 10 min 34 sec) 
Heartbeat CPU 0 instructions: 160000002 cycles: 162463093 heartbeat IPC: 0.999113 cumulative IPC: 0.9802 (Simulation time: 0 hr 11 min 17 sec) 
Heartbeat CPU 0 instructions: 170000000 cycles: 172561276 heartbeat IPC: 0.990277 cumulative IPC: 0.98079 (Simulation time: 0 hr 12 min 0 sec) 
Heartbeat CPU 0 instructions: 180000004 cycles: 182597155 heartbeat IPC: 0.996425 cumulative IPC: 0.981651 (Simulation time: 0 hr 12 min 44 sec) 
Heartbeat CPU 0 instructions: 190000002 cycles: 192718664 heartbeat IPC: 0.987995 cumulative IPC: 0.981984 (Simulation time: 0 hr 13 min 29 sec) 
Heartbeat CPU 0 instructions: 200000001 cycles: 202728193 heartbeat IPC: 0.999048 cumulative IPC: 0.982828 (Simulation time: 0 hr 14 min 14 sec) 
Heartbeat CPU 0 instructions: 210000000 cycles: 213064513 heartbeat IPC: 0.967462 cumulative IPC: 0.982082 (Simulation time: 0 hr 15 min 1 sec) 
Heartbeat CPU 0 instructions: 220000002 cycles: 222798353 heartbeat IPC: 1.02734 cumulative IPC: 0.984061 (Simulation time: 0 hr 15 min 50 sec) 
Heartbeat CPU 0 instructions: 230000001 cycles: 232654147 heartbeat IPC: 1.01463 cumulative IPC: 0.985358 (Simulation time: 0 hr 16 min 37 sec) 
Heartbeat CPU 0 instructions: 240000004 cycles: 242747053 heartbeat IPC: 0.990795 cumulative IPC: 0.985584 (Simulation time: 0 hr 17 min 24 sec) 
Heartbeat CPU 0 instructions: 250000002 cycles: 252875344 heartbeat IPC: 0.987333 cumulative IPC: 0.985654 (Simulation time: 0 hr 18 min 10 sec) 
Heartbeat CPU 0 instructions: 260000002 cycles: 262909453 heartbeat IPC: 0.996601 cumulative IPC: 0.986072 (Simulation time: 0 hr 18 min 58 sec) 
Heartbeat CPU 0 instructions: 270000003 cycles: 272328507 heartbeat IPC: 1.06168 cumulative IPC: 0.98869 (Simulation time: 0 hr 19 min 44 sec) 
Heartbeat CPU 0 instructions: 280000000 cycles: 282234989 heartbeat IPC: 1.00944 cumulative IPC: 0.989419 (Simulation time: 0 hr 20 min 31 sec) 
Heartbeat CPU 0 instructions: 290000000 cycles: 291986904 heartbeat IPC: 1.02544 cumulative IPC: 0.990623 (Simulation time: 0 hr 21 min 18 sec) 
Heartbeat CPU 0 instructions: 300000004 cycles: 302059560 heartbeat IPC: 0.992787 cumulative IPC: 0.990695 (Simulation time: 0 hr 22 min 5 sec) 
Heartbeat CPU 0 instructions: 310000002 cycles: 311906185 heartbeat IPC: 1.01558 cumulative IPC: 0.991481 (Simulation time: 0 hr 22 min 51 sec) 
Heartbeat CPU 0 instructions: 320000003 cycles: 322034272 heartbeat IPC: 0.987353 cumulative IPC: 0.991351 (Simulation time: 0 hr 23 min 37 sec) 
Heartbeat CPU 0 instructions: 330000004 cycles: 332306567 heartbeat IPC: 0.973492 cumulative IPC: 0.990799 (Simulation time: 0 hr 24 min 25 sec) 
Heartbeat CPU 0 instructions: 340000002 cycles: 342321527 heartbeat IPC: 0.998506 cumulative IPC: 0.991024 (Simulation time: 0 hr 25 min 12 sec) 
Heartbeat CPU 0 instructions: 350000001 cycles: 352300988 heartbeat IPC: 1.00206 cumulative IPC: 0.991337 (Simulation time: 0 hr 26 min 1 sec) 
Heartbeat CPU 0 instructions: 360000000 cycles: 362535901 heartbeat IPC: 0.977048 cumulative IPC: 0.990933 (Simulation time: 0 hr 26 min 51 sec) 
Heartbeat CPU 0 instructions: 370000002 cycles: 372537525 heartbeat IPC: 0.999838 cumulative IPC: 0.991173 (Simulation time: 0 hr 27 min 40 sec) 
Heartbeat CPU 0 instructions: 380000000 cycles: 382508369 heartbeat IPC: 1.00292 cumulative IPC: 0.991479 (Simulation time: 0 hr 28 min 30 sec) 
Heartbeat CPU 0 instructions: 390000004 cycles: 392601337 heartbeat IPC: 0.990789 cumulative IPC: 0.991461 (Simulation time: 0 hr 29 min 21 sec) 
Heartbeat CPU 0 instructions: 400000000 cycles: 402939445 heartbeat IPC: 0.967295 cumulative IPC: 0.990841 (Simulation time: 0 hr 30 min 12 sec) 
Heartbeat CPU 0 instructions: 410000000 cycles: 412793926 heartbeat IPC: 1.01477 cumulative IPC: 0.991413 (Simulation time: 0 hr 31 min 1 sec) 
Heartbeat CPU 0 instructions: 420000004 cycles: 422818903 heartbeat IPC: 0.997509 cumulative IPC: 0.991557 (Simulation time: 0 hr 31 min 49 sec) 
Heartbeat CPU 0 instructions: 430000000 cycles: 432986008 heartbeat IPC: 0.983564 cumulative IPC: 0.991369 (Simulation time: 0 hr 32 min 39 sec) 
Heartbeat CPU 0 instructions: 440000002 cycles: 443185789 heartbeat IPC: 0.980413 cumulative IPC: 0.991117 (Simulation time: 0 hr 33 min 29 sec) 
Heartbeat CPU 0 instructions: 450000001 cycles: 453197981 heartbeat IPC: 0.998782 cumulative IPC: 0.991287 (Simulation time: 0 hr 34 min 18 sec) 
Heartbeat CPU 0 instructions: 460000002 cycles: 463023731 heartbeat IPC: 1.01773 cumulative IPC: 0.991848 (Simulation time: 0 hr 35 min 10 sec) 
Heartbeat CPU 0 instructions: 470000001 cycles: 472958203 heartbeat IPC: 1.0066 cumulative IPC: 0.992158 (Simulation time: 0 hr 36 min 1 sec) 
Heartbeat CPU 0 instructions: 480000001 cycles: 483072719 heartbeat IPC: 0.988678 cumulative IPC: 0.992085 (Simulation time: 0 hr 36 min 54 sec) 
Heartbeat CPU 0 instructions: 490000003 cycles: 492998067 heartbeat IPC: 1.00752 cumulative IPC: 0.992396 (Simulation time: 0 hr 37 min 46 sec) 
Heartbeat CPU 0 instructions: 500000000 cycles: 503088498 heartbeat IPC: 0.991038 cumulative IPC: 0.992369 (Simulation time: 0 hr 38 min 40 sec) 
Heartbeat CPU 0 instructions: 510000000 cycles: 513281892 heartbeat IPC: 0.981028 cumulative IPC: 0.992143 (Simulation time: 0 hr 39 min 36 sec) 
Heartbeat CPU 0 instructions: 520000003 cycles: 523509214 heartbeat IPC: 0.977773 cumulative IPC: 0.991863 (Simulation time: 0 hr 40 min 31 sec) 
Heartbeat CPU 0 instructions: 530000004 cycles: 533641920 heartbeat IPC: 0.986903 cumulative IPC: 0.991768 (Simulation time: 0 hr 41 min 26 sec) 
Heartbeat CPU 0 instructions: 540000004 cycles: 543882497 heartbeat IPC: 0.976507 cumulative IPC: 0.991481 (Simulation time: 0 hr 42 min 21 sec) 
Heartbeat CPU 0 instructions: 550000004 cycles: 553896468 heartbeat IPC: 0.998605 cumulative IPC: 0.99161 (Simulation time: 0 hr 43 min 15 sec) 
Heartbeat CPU 0 instructions: 560000004 cycles: 564063296 heartbeat IPC: 0.983591 cumulative IPC: 0.991465 (Simulation time: 0 hr 44 min 10 sec) 
Heartbeat CPU 0 instructions: 570000002 cycles: 574247757 heartbeat IPC: 0.981888 cumulative IPC: 0.991295 (Simulation time: 0 hr 45 min 6 sec) 
Heartbeat CPU 0 instructions: 580000002 cycles: 584041159 heartbeat IPC: 1.0211 cumulative IPC: 0.991795 (Simulation time: 0 hr 46 min 0 sec) 
Heartbeat CPU 0 instructions: 590000004 cycles: 593605804 heartbeat IPC: 1.04552 cumulative IPC: 0.992661 (Simulation time: 0 hr 46 min 54 sec) 
Heartbeat CPU 0 instructions: 600000000 cycles: 603356364 heartbeat IPC: 1.02558 cumulative IPC: 0.993193 (Simulation time: 0 hr 47 min 49 sec) 
Heartbeat CPU 0 instructions: 610000000 cycles: 613158855 heartbeat IPC: 1.02015 cumulative IPC: 0.993624 (Simulation time: 0 hr 48 min 46 sec) 
Heartbeat CPU 0 instructions: 620000003 cycles: 623067814 heartbeat IPC: 1.00919 cumulative IPC: 0.993872 (Simulation time: 0 hr 49 min 39 sec) 
Heartbeat CPU 0 instructions: 630000002 cycles: 633158637 heartbeat IPC: 0.990999 cumulative IPC: 0.993826 (Simulation time: 0 hr 50 min 33 sec) 
Heartbeat CPU 0 instructions: 640000003 cycles: 643448865 heartbeat IPC: 0.971796 cumulative IPC: 0.993474 (Simulation time: 0 hr 51 min 29 sec) 
Heartbeat CPU 0 instructions: 650000001 cycles: 653267662 heartbeat IPC: 1.01845 cumulative IPC: 0.993849 (Simulation time: 0 hr 52 min 25 sec) 
Heartbeat CPU 0 instructions: 660000000 cycles: 663371371 heartbeat IPC: 0.989735 cumulative IPC: 0.993787 (Simulation time: 0 hr 53 min 21 sec) 
Heartbeat CPU 0 instructions: 670000002 cycles: 673544972 heartbeat IPC: 0.982936 cumulative IPC: 0.993623 (Simulation time: 0 hr 54 min 16 sec) 
Heartbeat CPU 0 instructions: 680000003 cycles: 683706458 heartbeat IPC: 0.984108 cumulative IPC: 0.993481 (Simulation time: 0 hr 55 min 10 sec) 
Heartbeat CPU 0 instructions: 690000001 cycles: 693457512 heartbeat IPC: 1.02553 cumulative IPC: 0.993932 (Simulation time: 0 hr 56 min 5 sec) 
Heartbeat CPU 0 instructions: 700000004 cycles: 703356078 heartbeat IPC: 1.01025 cumulative IPC: 0.994162 (Simulation time: 0 hr 56 min 59 sec) 
Heartbeat CPU 0 instructions: 710000002 cycles: 713452109 heartbeat IPC: 0.990488 cumulative IPC: 0.99411 (Simulation time: 0 hr 57 min 54 sec) 
Heartbeat CPU 0 instructions: 720000000 cycles: 723661241 heartbeat IPC: 0.979515 cumulative IPC: 0.993904 (Simulation time: 0 hr 58 min 49 sec) 
Heartbeat CPU 0 instructions: 730000000 cycles: 734000582 heartbeat IPC: 0.96718 cumulative IPC: 0.993527 (Simulation time: 0 hr 59 min 47 sec) 
Heartbeat CPU 0 instructions: 740000001 cycles: 744130694 heartbeat IPC: 0.987156 cumulative IPC: 0.993441 (Simulation time: 1 hr 0 min 42 sec) 
Heartbeat CPU 0 instructions: 750000000 cycles: 753868923 heartbeat IPC: 1.02688 cumulative IPC: 0.993873 (Simulation time: 1 hr 1 min 37 sec) 
Heartbeat CPU 0 instructions: 760000001 cycles: 763993946 heartbeat IPC: 0.987652 cumulative IPC: 0.99379 (Simulation time: 1 hr 2 min 32 sec) 
Heartbeat CPU 0 instructions: 770000000 cycles: 774193999 heartbeat IPC: 0.980387 cumulative IPC: 0.993614 (Simulation time: 1 hr 3 min 26 sec) 
Heartbeat CPU 0 instructions: 780000003 cycles: 784264043 heartbeat IPC: 0.993045 cumulative IPC: 0.993606 (Simulation time: 1 hr 4 min 19 sec) 
Heartbeat CPU 0 instructions: 790000003 cycles: 794242688 heartbeat IPC: 1.00214 cumulative IPC: 0.993713 (Simulation time: 1 hr 5 min 12 sec) 
Heartbeat CPU 0 instructions: 800000000 cycles: 804197212 heartbeat IPC: 1.00457 cumulative IPC: 0.993848 (Simulation time: 1 hr 6 min 5 sec) 
Heartbeat CPU 0 instructions: 810000001 cycles: 814206901 heartbeat IPC: 0.999032 cumulative IPC: 0.993912 (Simulation time: 1 hr 6 min 59 sec) 
Heartbeat CPU 0 instructions: 820000000 cycles: 824374685 heartbeat IPC: 0.983498 cumulative IPC: 0.993783 (Simulation time: 1 hr 7 min 52 sec) 
Heartbeat CPU 0 instructions: 830000000 cycles: 834482617 heartbeat IPC: 0.989322 cumulative IPC: 0.993729 (Simulation time: 1 hr 8 min 44 sec) 
Heartbeat CPU 0 instructions: 840000004 cycles: 844386941 heartbeat IPC: 1.00966 cumulative IPC: 0.993916 (Simulation time: 1 hr 9 min 36 sec) 
Heartbeat CPU 0 instructions: 850000001 cycles: 854001732 heartbeat IPC: 1.04006 cumulative IPC: 0.994436 (Simulation time: 1 hr 10 min 28 sec) 
Heartbeat CPU 0 instructions: 860000000 cycles: 863952023 heartbeat IPC: 1.005 cumulative IPC: 0.994557 (Simulation time: 1 hr 11 min 20 sec) 
Heartbeat CPU 0 instructions: 870000001 cycles: 874090283 heartbeat IPC: 0.986363 cumulative IPC: 0.994462 (Simulation time: 1 hr 12 min 12 sec) 
Heartbeat CPU 0 instructions: 880000003 cycles: 884109880 heartbeat IPC: 0.998044 cumulative IPC: 0.994503 (Simulation time: 1 hr 13 min 4 sec) 
Heartbeat CPU 0 instructions: 890000000 cycles: 894178542 heartbeat IPC: 0.99318 cumulative IPC: 0.994488 (Simulation time: 1 hr 13 min 56 sec) 
Heartbeat CPU 0 instructions: 900000000 cycles: 904261560 heartbeat IPC: 0.991767 cumulative IPC: 0.994458 (Simulation time: 1 hr 14 min 47 sec) 
Heartbeat CPU 0 instructions: 910000003 cycles: 914248628 heartbeat IPC: 1.0013 cumulative IPC: 0.994532 (Simulation time: 1 hr 15 min 39 sec) 
Heartbeat CPU 0 instructions: 920000000 cycles: 924197833 heartbeat IPC: 1.00511 cumulative IPC: 0.994646 (Simulation time: 1 hr 16 min 31 sec) 
Heartbeat CPU 0 instructions: 930000004 cycles: 934531966 heartbeat IPC: 0.967667 cumulative IPC: 0.994348 (Simulation time: 1 hr 17 min 25 sec) 
Heartbeat CPU 0 instructions: 940000002 cycles: 944736431 heartbeat IPC: 0.979963 cumulative IPC: 0.994192 (Simulation time: 1 hr 18 min 20 sec) 
Heartbeat CPU 0 instructions: 950000000 cycles: 954928738 heartbeat IPC: 0.981132 cumulative IPC: 0.994053 (Simulation time: 1 hr 19 min 13 sec) 
Heartbeat CPU 0 instructions: 960000002 cycles: 965131965 heartbeat IPC: 0.980082 cumulative IPC: 0.993905 (Simulation time: 1 hr 20 min 7 sec) 
Heartbeat CPU 0 instructions: 970000001 cycles: 975236447 heartbeat IPC: 0.98966 cumulative IPC: 0.993861 (Simulation time: 1 hr 21 min 0 sec) 
Heartbeat CPU 0 instructions: 980000002 cycles: 985456202 heartbeat IPC: 0.978497 cumulative IPC: 0.993702 (Simulation time: 1 hr 21 min 52 sec) 
Heartbeat CPU 0 instructions: 990000002 cycles: 995566003 heartbeat IPC: 0.989139 cumulative IPC: 0.993656 (Simulation time: 1 hr 22 min 44 sec) 
Heartbeat CPU 0 instructions: 1000000003 cycles: 1005803149 heartbeat IPC: 0.976835 cumulative IPC: 0.993484 (Simulation time: 1 hr 23 min 33 sec) 
Finished CPU 0 instructions: 1000000000 cycles: 1006574356 cumulative IPC: 0.993469 (Simulation time: 1 hr 23 min 38 sec) 

ChampSim completed all CPUs

Region of Interest Statistics

CPU 0 cumulative IPC: 0.993469 instructions: 1000000000 cycles: 1006574356
cpu0_DTLB TOTAL     ACCESS:  209946329  HIT:  208189528  MISS:    1756801
cpu0_DTLB LOAD      ACCESS:  165736190  HIT:  164233795  MISS:    1502395
cpu0_DTLB RFO       ACCESS:   44210139  HIT:   43955733  MISS:     254406
cpu0_DTLB PREFETCH  ACCESS:          0  HIT:          0  MISS:          0
cpu0_DTLB WRITEBACK ACCESS:          0  HIT:          0  MISS:          0
cpu0_DTLB TRANSLATION ACCESS:          0  HIT:          0  MISS:          0
cpu0_DTLB PREFETCH  REQUESTED:          0  ISSUED:          0  USEFUL:          0  USELESS:          0
cpu0_DTLB AVERAGE MISS LATENCY: 14.5137 cycles
cpu0_ITLB TOTAL     ACCESS:   88812683  HIT:   88812667  MISS:         16
cpu0_ITLB LOAD      ACCESS:   88812683  HIT:   88812667  MISS:         16
cpu0_ITLB RFO       ACCESS:          0  HIT:          0  MISS:          0
cpu0_ITLB PREFETCH  ACCESS:          0  HIT:          0  MISS:          0
cpu0_ITLB WRITEBACK ACCESS:          0  HIT:          0  MISS:          0
cpu0_ITLB TRANSLATION ACCESS:          0  HIT:          0  MISS:          0
cpu0_ITLB PREFETCH  REQUESTED:          0  ISSUED:          0  USEFUL:          0  USELESS:          0
cpu0_ITLB AVERAGE MISS LATENCY: 217.625 cycles
cpu0_L1I TOTAL     ACCESS:   59273361  HIT:   59258085  MISS:      15276
cpu0_L1I LOAD      ACCESS:   59273361  HIT:   59258085  MISS:      15276
cpu0_L1I RFO       ACCESS:          0  HIT:          0  MISS:          0
cpu0_L1I PREFETCH  ACCESS:          0  HIT:          0  MISS:          0
cpu0_L1I WRITEBACK ACCESS:          0  HIT:          0  MISS:          0
cpu0_L1I TRANSLATION ACCESS:          0  HIT:          0  MISS:          0
cpu0_L1I PREFETCH  REQUESTED:          0  ISSUED:          0  USEFUL:          0  USELESS:          0
cpu0_L1I AVERAGE MISS LATENCY: 26.7567 cycles
cpu0_STLB TOTAL     ACCESS:    1756817  HIT:    1455099  MISS:     301718
cpu0_STLB LOAD      ACCESS:    1502411  HIT:    1201884  MISS:     300527
cpu0_STLB RFO       ACCESS:     254406  HIT:     253215  MISS:       1191
cpu0_STLB PREFETCH  ACCESS:          0  HIT:          0  MISS:          0
cpu0_STLB WRITEBACK ACCESS:          0  HIT:          0  MISS:          0
cpu0_STLB TRANSLATION ACCESS:          0  HIT:          0  MISS:          0
cpu0_STLB PREFETCH  REQUESTED:          0  ISSUED:          0  USEFUL:          0  USELESS:          0
cpu0_STLB AVERAGE MISS LATENCY: 32.035 cycles
cpu0_L1D TOTAL     ACCESS:  430669160  HIT:  427575861  MISS:    3093299
cpu0_L1D LOAD      ACCESS:  177770386  HIT:  176545381  MISS:    1225005
cpu0_L1D RFO       ACCESS:   76841698  HIT:   76324750  MISS:     516948
cpu0_L1D PREFETCH  ACCESS:  175755360  HIT:  174421798  MISS:    1333562
cpu0_L1D WRITEBACK ACCESS:          0  HIT:          0  MISS:          0
cpu0_L1D TRANSLATION ACCESS:     301716  HIT:     283932  MISS:      17784
cpu0_L1D PREFETCH  REQUESTED:  177818136  ISSUED:  175865079  USEFUL:     813092  USELESS:     539265
cpu0_L1D AVERAGE MISS LATENCY: 85.1516 cycles
cpu0_L2C TOTAL     ACCESS:    4184733  HIT:    3442692  MISS:     742041
cpu0_L2C LOAD      ACCESS:    1223251  HIT:     863583  MISS:     359668
cpu0_L2C RFO       ACCESS:     513186  HIT:     501120  MISS:      12066
cpu0_L2C PREFETCH  ACCESS:    1446246  HIT:    1078639  MISS:     367607
cpu0_L2C WRITEBACK ACCESS:     984266  HIT:     981860  MISS:       2406
cpu0_L2C TRANSLATION ACCESS:      17784  HIT:      17490  MISS:        294
cpu0_L2C PREFETCH  REQUESTED:      96280  ISSUED:      94580  USEFUL:       4306  USELESS:       3608
cpu0_L2C AVERAGE MISS LATENCY: 302.114 cycles
LLC TOTAL     ACCESS:    1069152  HIT:     417282  MISS:     651870
LLC LOAD      ACCESS:     359668  HIT:      38335  MISS:     321333
LLC RFO       ACCESS:      12064  HIT:      10207  MISS:       1857
LLC PREFETCH  ACCESS:     367605  HIT:      47426  MISS:     320179
LLC WRITEBACK ACCESS:     329521  HIT:     321041  MISS:       8480
LLC TRANSLATION ACCESS:        294  HIT:        273  MISS:         21
LLC PREFETCH  REQUESTED:          0  ISSUED:          0  USEFUL:          0  USELESS:          0
LLC AVERAGE MISS LATENCY: 313.269 cycles

DRAM Statistics
 CHANNEL 0
 RQ ROW_BUFFER_HIT:        390  ROW_BUFFER_MISS:     642999
 DBUS AVG_CONGESTED_CYCLE:    3.51959
 WQ ROW_BUFFER_HIT:      43614  ROW_BUFFER_MISS:     248415  FULL:          0


CPU 0 Branch Prediction Accuracy: 90.3752% MPKI: 21.3013 Average ROB Occupancy at Mispredict: 24.576
Branch type MPKI
BRANCH_DIRECT_JUMP: 0.000132
BRANCH_INDIRECT: 0.948516
BRANCH_CONDITIONAL: 19.9207
BRANCH_DIRECT_CALL: 6.1e-05
BRANCH_INDIRECT_CALL: 0.431806
BRANCH_RETURN: 6.6e-05

