
*** ChampSim Multicore Out-of-Order Simulator ***

Warmup Instructions: 1000000
Simulation Instructions: 1000000000
Number of CPUs: 1
Off-chip DRAM Size: 4 GiB Channels: 1 Width: 64-bit Data Rate: 3200 MT/s

VirtualMemory physical capacity: 8588881920 num_ppages: 2096895
VirtualMemory page size: 4096 log2_page_size: 12

CPU 0 runs tracer/pin/traces/spec2k6/403.gcc-17B.champsimtrace.xz
Basic BTB sets: 1024 ways: 8 indirect buffer size: 4096 RAS size: 64
cpu0_L1D next line prefetcher
cpu0_L2C IP-based stride prefetcher
WARNING: The extended signature CACHE::prefetch_line(ip, base_addr, pf_addr, fill_this_level, prefetch_metadata) is deprecated.
WARNING: Use CACHE::prefetch_line(pf_addr, fill_this_level, prefetch_metadata) instead.

Warmup complete CPU 0 instructions: 1000003 cycles: 250212 (Simulation time: 0 hr 0 min 3 sec) 

Heartbeat CPU 0 instructions: 10000004 cycles: 22324405 heartbeat IPC: 0.44794 cumulative IPC: 0.407716 (Simulation time: 0 hr 24 min 18 sec) 
Heartbeat CPU 0 instructions: 20000002 cycles: 60185544 heartbeat IPC: 0.264123 cumulative IPC: 0.317008 (Simulation time: 0 hr 26 min 13 sec) 
Heartbeat CPU 0 instructions: 30000004 cycles: 111536607 heartbeat IPC: 0.194738 cumulative IPC: 0.260589 (Simulation time: 0 hr 31 min 18 sec) 
Heartbeat CPU 0 instructions: 40000003 cycles: 189941334 heartbeat IPC: 0.127543 cumulative IPC: 0.205597 (Simulation time: 0 hr 41 min 5 sec) 
Heartbeat CPU 0 instructions: 50000002 cycles: 211779487 heartbeat IPC: 0.457914 cumulative IPC: 0.231646 (Simulation time: 0 hr 42 min 40 sec) 
Heartbeat CPU 0 instructions: 60000000 cycles: 232929319 heartbeat IPC: 0.472817 cumulative IPC: 0.253568 (Simulation time: 0 hr 44 min 13 sec) 
Heartbeat CPU 0 instructions: 70000001 cycles: 252546033 heartbeat IPC: 0.509769 cumulative IPC: 0.273488 (Simulation time: 0 hr 45 min 41 sec) 
Heartbeat CPU 0 instructions: 80000001 cycles: 283539883 heartbeat IPC: 0.322645 cumulative IPC: 0.278866 (Simulation time: 0 hr 47 min 20 sec) 
Heartbeat CPU 0 instructions: 90000000 cycles: 313284083 heartbeat IPC: 0.3362 cumulative IPC: 0.284314 (Simulation time: 0 hr 49 min 1 sec) 
Heartbeat CPU 0 instructions: 100000002 cycles: 355477556 heartbeat IPC: 0.237004 cumulative IPC: 0.278695 (Simulation time: 0 hr 52 min 32 sec) 
Heartbeat CPU 0 instructions: 110000004 cycles: 399558282 heartbeat IPC: 0.226857 cumulative IPC: 0.272972 (Simulation time: 0 hr 56 min 41 sec) 
Heartbeat CPU 0 instructions: 120000001 cycles: 413297607 heartbeat IPC: 0.727838 cumulative IPC: 0.288103 (Simulation time: 0 hr 57 min 54 sec) 
Heartbeat CPU 0 instructions: 130000003 cycles: 426148305 heartbeat IPC: 0.778168 cumulative IPC: 0.302889 (Simulation time: 0 hr 59 min 5 sec) 
Heartbeat CPU 0 instructions: 140000000 cycles: 439449371 heartbeat IPC: 0.751819 cumulative IPC: 0.316485 (Simulation time: 1 hr 0 min 18 sec) 
Heartbeat CPU 0 instructions: 150000003 cycles: 452642013 heartbeat IPC: 0.757999 cumulative IPC: 0.329361 (Simulation time: 1 hr 1 min 32 sec) 
Heartbeat CPU 0 instructions: 160000001 cycles: 466359070 heartbeat IPC: 0.729019 cumulative IPC: 0.341122 (Simulation time: 1 hr 2 min 48 sec) 
Heartbeat CPU 0 instructions: 170000003 cycles: 479461957 heartbeat IPC: 0.763191 cumulative IPC: 0.352662 (Simulation time: 1 hr 3 min 58 sec) 
Heartbeat CPU 0 instructions: 180000003 cycles: 492622322 heartbeat IPC: 0.759857 cumulative IPC: 0.363546 (Simulation time: 1 hr 5 min 15 sec) 
Heartbeat CPU 0 instructions: 190000002 cycles: 505776344 heartbeat IPC: 0.760224 cumulative IPC: 0.373868 (Simulation time: 1 hr 6 min 31 sec) 
Heartbeat CPU 0 instructions: 200000000 cycles: 519610322 heartbeat IPC: 0.722858 cumulative IPC: 0.383164 (Simulation time: 1 hr 7 min 49 sec) 
Heartbeat CPU 0 instructions: 210000000 cycles: 532607755 heartbeat IPC: 0.769383 cumulative IPC: 0.392593 (Simulation time: 1 hr 8 min 59 sec) 
Heartbeat CPU 0 instructions: 220000004 cycles: 545695811 heartbeat IPC: 0.764056 cumulative IPC: 0.401507 (Simulation time: 1 hr 10 min 5 sec) 
Heartbeat CPU 0 instructions: 230000001 cycles: 559608817 heartbeat IPC: 0.718752 cumulative IPC: 0.409397 (Simulation time: 1 hr 11 min 12 sec) 
Heartbeat CPU 0 instructions: 240000002 cycles: 573035466 heartbeat IPC: 0.744788 cumulative IPC: 0.417259 (Simulation time: 1 hr 12 min 15 sec) 
Heartbeat CPU 0 instructions: 250000000 cycles: 586277583 heartbeat IPC: 0.755166 cumulative IPC: 0.424895 (Simulation time: 1 hr 13 min 18 sec) 
Heartbeat CPU 0 instructions: 260000001 cycles: 599163842 heartbeat IPC: 0.77602 cumulative IPC: 0.43245 (Simulation time: 1 hr 14 min 20 sec) 
Heartbeat CPU 0 instructions: 270000002 cycles: 612116426 heartbeat IPC: 0.772047 cumulative IPC: 0.439639 (Simulation time: 1 hr 15 min 20 sec) 
Heartbeat CPU 0 instructions: 280000002 cycles: 625185118 heartbeat IPC: 0.765188 cumulative IPC: 0.446447 (Simulation time: 1 hr 16 min 21 sec) 
Heartbeat CPU 0 instructions: 290000000 cycles: 638183676 heartbeat IPC: 0.769316 cumulative IPC: 0.453025 (Simulation time: 1 hr 17 min 22 sec) 
Heartbeat CPU 0 instructions: 300000004 cycles: 651438087 heartbeat IPC: 0.754466 cumulative IPC: 0.459161 (Simulation time: 1 hr 18 min 26 sec) 
Heartbeat CPU 0 instructions: 310000000 cycles: 665204712 heartbeat IPC: 0.726394 cumulative IPC: 0.464693 (Simulation time: 1 hr 19 min 32 sec) 
Heartbeat CPU 0 instructions: 320000004 cycles: 678530035 heartbeat IPC: 0.750451 cumulative IPC: 0.470307 (Simulation time: 1 hr 20 min 35 sec) 
Heartbeat CPU 0 instructions: 330000003 cycles: 691791019 heartbeat IPC: 0.754092 cumulative IPC: 0.475749 (Simulation time: 1 hr 21 min 36 sec) 
Heartbeat CPU 0 instructions: 340000003 cycles: 705141671 heartbeat IPC: 0.749027 cumulative IPC: 0.480925 (Simulation time: 1 hr 22 min 38 sec) 
Heartbeat CPU 0 instructions: 350000001 cycles: 718135450 heartbeat IPC: 0.769599 cumulative IPC: 0.48615 (Simulation time: 1 hr 23 min 39 sec) 
Heartbeat CPU 0 instructions: 360000001 cycles: 730887953 heartbeat IPC: 0.78416 cumulative IPC: 0.491352 (Simulation time: 1 hr 24 min 37 sec) 
Heartbeat CPU 0 instructions: 370000003 cycles: 744068935 heartbeat IPC: 0.758669 cumulative IPC: 0.496089 (Simulation time: 1 hr 25 min 38 sec) 
Heartbeat CPU 0 instructions: 380000002 cycles: 756715342 heartbeat IPC: 0.790738 cumulative IPC: 0.501014 (Simulation time: 1 hr 26 min 34 sec) 
Heartbeat CPU 0 instructions: 390000000 cycles: 769722737 heartbeat IPC: 0.768793 cumulative IPC: 0.505541 (Simulation time: 1 hr 27 min 31 sec) 
Heartbeat CPU 0 instructions: 400000001 cycles: 782940740 heartbeat IPC: 0.756544 cumulative IPC: 0.50978 (Simulation time: 1 hr 28 min 29 sec) 
Heartbeat CPU 0 instructions: 410000004 cycles: 795585605 heartbeat IPC: 0.790835 cumulative IPC: 0.514248 (Simulation time: 1 hr 29 min 24 sec) 
Heartbeat CPU 0 instructions: 420000002 cycles: 808664342 heartbeat IPC: 0.7646 cumulative IPC: 0.518299 (Simulation time: 1 hr 30 min 17 sec) 
Heartbeat CPU 0 instructions: 430000004 cycles: 821641791 heartbeat IPC: 0.770568 cumulative IPC: 0.522284 (Simulation time: 1 hr 31 min 11 sec) 
Heartbeat CPU 0 instructions: 440000000 cycles: 835041615 heartbeat IPC: 0.746278 cumulative IPC: 0.52588 (Simulation time: 1 hr 32 min 7 sec) 
Heartbeat CPU 0 instructions: 450000003 cycles: 848583267 heartbeat IPC: 0.738463 cumulative IPC: 0.529273 (Simulation time: 1 hr 33 min 3 sec) 
Heartbeat CPU 0 instructions: 460000002 cycles: 861961638 heartbeat IPC: 0.747475 cumulative IPC: 0.532661 (Simulation time: 1 hr 33 min 58 sec) 
Heartbeat CPU 0 instructions: 470000004 cycles: 874950055 heartbeat IPC: 0.769917 cumulative IPC: 0.536184 (Simulation time: 1 hr 34 min 50 sec) 
Heartbeat CPU 0 instructions: 480000002 cycles: 887897221 heartbeat IPC: 0.77237 cumulative IPC: 0.539629 (Simulation time: 1 hr 35 min 44 sec) 
Heartbeat CPU 0 instructions: 490000003 cycles: 900672798 heartbeat IPC: 0.782744 cumulative IPC: 0.543078 (Simulation time: 1 hr 36 min 34 sec) 
Heartbeat CPU 0 instructions: 500000001 cycles: 913726852 heartbeat IPC: 0.766045 cumulative IPC: 0.546265 (Simulation time: 1 hr 37 min 26 sec) 
Heartbeat CPU 0 instructions: 510000001 cycles: 926942918 heartbeat IPC: 0.756655 cumulative IPC: 0.549265 (Simulation time: 1 hr 38 min 20 sec) 
Heartbeat CPU 0 instructions: 520000000 cycles: 940624869 heartbeat IPC: 0.73089 cumulative IPC: 0.551908 (Simulation time: 1 hr 39 min 16 sec) 
Heartbeat CPU 0 instructions: 530000004 cycles: 954094802 heartbeat IPC: 0.742395 cumulative IPC: 0.554598 (Simulation time: 1 hr 40 min 11 sec) 
Heartbeat CPU 0 instructions: 540000001 cycles: 967358561 heartbeat IPC: 0.753934 cumulative IPC: 0.557332 (Simulation time: 1 hr 41 min 0 sec) 
Heartbeat CPU 0 instructions: 550000000 cycles: 980423072 heartbeat IPC: 0.765432 cumulative IPC: 0.560105 (Simulation time: 1 hr 41 min 47 sec) 
Heartbeat CPU 0 instructions: 560000003 cycles: 993745068 heartbeat IPC: 0.750638 cumulative IPC: 0.56266 (Simulation time: 1 hr 42 min 35 sec) 
Heartbeat CPU 0 instructions: 570000002 cycles: 1007023174 heartbeat IPC: 0.753119 cumulative IPC: 0.565172 (Simulation time: 1 hr 43 min 24 sec) 
Heartbeat CPU 0 instructions: 580000004 cycles: 1019838176 heartbeat IPC: 0.780336 cumulative IPC: 0.567876 (Simulation time: 1 hr 44 min 11 sec) 
Heartbeat CPU 0 instructions: 590000002 cycles: 1033091985 heartbeat IPC: 0.7545 cumulative IPC: 0.570271 (Simulation time: 1 hr 45 min 0 sec) 
Heartbeat CPU 0 instructions: 600000002 cycles: 1046061121 heartbeat IPC: 0.771061 cumulative IPC: 0.572761 (Simulation time: 1 hr 45 min 47 sec) 
Heartbeat CPU 0 instructions: 610000002 cycles: 1058973707 heartbeat IPC: 0.774438 cumulative IPC: 0.575221 (Simulation time: 1 hr 46 min 34 sec) 
Heartbeat CPU 0 instructions: 620000001 cycles: 1072264001 heartbeat IPC: 0.752429 cumulative IPC: 0.577418 (Simulation time: 1 hr 47 min 23 sec) 
Heartbeat CPU 0 instructions: 630000002 cycles: 1085168919 heartbeat IPC: 0.774898 cumulative IPC: 0.579767 (Simulation time: 1 hr 48 min 10 sec) 
Heartbeat CPU 0 instructions: 640000002 cycles: 1098635056 heartbeat IPC: 0.742603 cumulative IPC: 0.581763 (Simulation time: 1 hr 48 min 58 sec) 
Heartbeat CPU 0 instructions: 650000001 cycles: 1111668281 heartbeat IPC: 0.76727 cumulative IPC: 0.583939 (Simulation time: 1 hr 49 min 44 sec) 
Heartbeat CPU 0 instructions: 660000002 cycles: 1124949873 heartbeat IPC: 0.752922 cumulative IPC: 0.585934 (Simulation time: 1 hr 50 min 30 sec) 
Heartbeat CPU 0 instructions: 670000000 cycles: 1137866842 heartbeat IPC: 0.774175 cumulative IPC: 0.588072 (Simulation time: 1 hr 51 min 16 sec) 
Heartbeat CPU 0 instructions: 680000002 cycles: 1151619145 heartbeat IPC: 0.727151 cumulative IPC: 0.589733 (Simulation time: 1 hr 52 min 5 sec) 
Heartbeat CPU 0 instructions: 690000001 cycles: 1164698321 heartbeat IPC: 0.764574 cumulative IPC: 0.591697 (Simulation time: 1 hr 52 min 51 sec) 
Heartbeat CPU 0 instructions: 700000000 cycles: 1177695188 heartbeat IPC: 0.769416 cumulative IPC: 0.593658 (Simulation time: 1 hr 53 min 36 sec) 
Heartbeat CPU 0 instructions: 710000000 cycles: 1190799928 heartbeat IPC: 0.763083 cumulative IPC: 0.595523 (Simulation time: 1 hr 54 min 23 sec) 
Heartbeat CPU 0 instructions: 720000001 cycles: 1204038195 heartbeat IPC: 0.755386 cumulative IPC: 0.597281 (Simulation time: 1 hr 55 min 9 sec) 
Heartbeat CPU 0 instructions: 730000002 cycles: 1216818878 heartbeat IPC: 0.782431 cumulative IPC: 0.599226 (Simulation time: 1 hr 55 min 54 sec) 
Heartbeat CPU 0 instructions: 740000002 cycles: 1229902485 heartbeat IPC: 0.764315 cumulative IPC: 0.600983 (Simulation time: 1 hr 56 min 40 sec) 
Heartbeat CPU 0 instructions: 750000001 cycles: 1242842046 heartbeat IPC: 0.772824 cumulative IPC: 0.602772 (Simulation time: 1 hr 57 min 25 sec) 
Heartbeat CPU 0 instructions: 760000000 cycles: 1256633301 heartbeat IPC: 0.725097 cumulative IPC: 0.604115 (Simulation time: 1 hr 58 min 13 sec) 
Heartbeat CPU 0 instructions: 770000000 cycles: 1269798632 heartbeat IPC: 0.759571 cumulative IPC: 0.605727 (Simulation time: 1 hr 58 min 59 sec) 
Heartbeat CPU 0 instructions: 780000004 cycles: 1283029102 heartbeat IPC: 0.755831 cumulative IPC: 0.607275 (Simulation time: 1 hr 59 min 45 sec) 
Heartbeat CPU 0 instructions: 790000000 cycles: 1296109965 heartbeat IPC: 0.764475 cumulative IPC: 0.608862 (Simulation time: 2 hr 0 min 31 sec) 
Heartbeat CPU 0 instructions: 800000002 cycles: 1309245824 heartbeat IPC: 0.761275 cumulative IPC: 0.610392 (Simulation time: 2 hr 1 min 16 sec) 
Heartbeat CPU 0 instructions: 810000003 cycles: 1321953045 heartbeat IPC: 0.786954 cumulative IPC: 0.612089 (Simulation time: 2 hr 2 min 1 sec) 
Heartbeat CPU 0 instructions: 820000000 cycles: 1335079985 heartbeat IPC: 0.761792 cumulative IPC: 0.613561 (Simulation time: 2 hr 2 min 46 sec) 
Heartbeat CPU 0 instructions: 830000000 cycles: 1347843105 heartbeat IPC: 0.783507 cumulative IPC: 0.615171 (Simulation time: 2 hr 3 min 31 sec) 
Heartbeat CPU 0 instructions: 840000001 cycles: 1361126289 heartbeat IPC: 0.752832 cumulative IPC: 0.616515 (Simulation time: 2 hr 4 min 18 sec) 
Heartbeat CPU 0 instructions: 850000002 cycles: 1374237511 heartbeat IPC: 0.762706 cumulative IPC: 0.61791 (Simulation time: 2 hr 5 min 4 sec) 
Heartbeat CPU 0 instructions: 860000002 cycles: 1387498993 heartbeat IPC: 0.754064 cumulative IPC: 0.619211 (Simulation time: 2 hr 5 min 50 sec) 
Heartbeat CPU 0 instructions: 870000002 cycles: 1400301880 heartbeat IPC: 0.781074 cumulative IPC: 0.620691 (Simulation time: 2 hr 6 min 36 sec) 
Heartbeat CPU 0 instructions: 880000004 cycles: 1413401520 heartbeat IPC: 0.76338 cumulative IPC: 0.622014 (Simulation time: 2 hr 7 min 22 sec) 
Heartbeat CPU 0 instructions: 890000001 cycles: 1426390653 heartbeat IPC: 0.769874 cumulative IPC: 0.623361 (Simulation time: 2 hr 8 min 7 sec) 
Heartbeat CPU 0 instructions: 900000000 cycles: 1439691236 heartbeat IPC: 0.751847 cumulative IPC: 0.624548 (Simulation time: 2 hr 8 min 53 sec) 
Heartbeat CPU 0 instructions: 910000000 cycles: 1453601983 heartbeat IPC: 0.718869 cumulative IPC: 0.625451 (Simulation time: 2 hr 9 min 41 sec) 
Heartbeat CPU 0 instructions: 920000002 cycles: 1467025776 heartbeat IPC: 0.744946 cumulative IPC: 0.626544 (Simulation time: 2 hr 10 min 28 sec) 
Heartbeat CPU 0 instructions: 930000004 cycles: 1480174920 heartbeat IPC: 0.760506 cumulative IPC: 0.627735 (Simulation time: 2 hr 11 min 14 sec) 
Heartbeat CPU 0 instructions: 940000003 cycles: 1493180738 heartbeat IPC: 0.768887 cumulative IPC: 0.628964 (Simulation time: 2 hr 12 min 0 sec) 
Heartbeat CPU 0 instructions: 950000001 cycles: 1506031505 heartbeat IPC: 0.778163 cumulative IPC: 0.630238 (Simulation time: 2 hr 12 min 46 sec) 
Heartbeat CPU 0 instructions: 960000001 cycles: 1519665521 heartbeat IPC: 0.73346 cumulative IPC: 0.631164 (Simulation time: 2 hr 13 min 33 sec) 
Heartbeat CPU 0 instructions: 970000001 cycles: 1533162956 heartbeat IPC: 0.740882 cumulative IPC: 0.63213 (Simulation time: 2 hr 14 min 20 sec) 
Heartbeat CPU 0 instructions: 980000001 cycles: 1546079862 heartbeat IPC: 0.774179 cumulative IPC: 0.633317 (Simulation time: 2 hr 15 min 6 sec) 
Heartbeat CPU 0 instructions: 990000000 cycles: 1559586730 heartbeat IPC: 0.740364 cumulative IPC: 0.634244 (Simulation time: 2 hr 15 min 52 sec) 
Heartbeat CPU 0 instructions: 1000000001 cycles: 1572446730 heartbeat IPC: 0.777605 cumulative IPC: 0.635417 (Simulation time: 2 hr 16 min 37 sec) 
Finished CPU 0 instructions: 1000000001 cycles: 1573506631 cumulative IPC: 0.635523 (Simulation time: 2 hr 16 min 41 sec) 

ChampSim completed all CPUs

Region of Interest Statistics

CPU 0 cumulative IPC: 0.635523 instructions: 1000000001 cycles: 1573506631
cpu0_DTLB TOTAL     ACCESS:  226843812  HIT:  221550749  MISS:    5293063
cpu0_DTLB LOAD      ACCESS:  166471965  HIT:  161747947  MISS:    4724018
cpu0_DTLB RFO       ACCESS:   60371847  HIT:   59802802  MISS:     569045
cpu0_DTLB PREFETCH  ACCESS:          0  HIT:          0  MISS:          0
cpu0_DTLB WRITEBACK ACCESS:          0  HIT:          0  MISS:          0
cpu0_DTLB TRANSLATION ACCESS:          0  HIT:          0  MISS:          0
cpu0_DTLB PREFETCH  REQUESTED:          0  ISSUED:          0  USEFUL:          0  USELESS:          0
cpu0_DTLB AVERAGE MISS LATENCY: 14.2367 cycles
cpu0_ITLB TOTAL     ACCESS:   82574313  HIT:   82572351  MISS:       1962
cpu0_ITLB LOAD      ACCESS:   82574313  HIT:   82572351  MISS:       1962
cpu0_ITLB RFO       ACCESS:          0  HIT:          0  MISS:          0
cpu0_ITLB PREFETCH  ACCESS:          0  HIT:          0  MISS:          0
cpu0_ITLB WRITEBACK ACCESS:          0  HIT:          0  MISS:          0
cpu0_ITLB TRANSLATION ACCESS:          0  HIT:          0  MISS:          0
cpu0_ITLB PREFETCH  REQUESTED:          0  ISSUED:          0  USEFUL:          0  USELESS:          0
cpu0_ITLB AVERAGE MISS LATENCY: 13.8364 cycles
cpu0_L1I TOTAL     ACCESS:   98881044  HIT:   98878142  MISS:       2902
cpu0_L1I LOAD      ACCESS:   98881044  HIT:   98878142  MISS:       2902
cpu0_L1I RFO       ACCESS:          0  HIT:          0  MISS:          0
cpu0_L1I PREFETCH  ACCESS:          0  HIT:          0  MISS:          0
cpu0_L1I WRITEBACK ACCESS:          0  HIT:          0  MISS:          0
cpu0_L1I TRANSLATION ACCESS:          0  HIT:          0  MISS:          0
cpu0_L1I PREFETCH  REQUESTED:          0  ISSUED:          0  USEFUL:          0  USELESS:          0
cpu0_L1I AVERAGE MISS LATENCY: 169.38 cycles
cpu0_STLB TOTAL     ACCESS:    5295025  HIT:    2965997  MISS:    2329028
cpu0_STLB LOAD      ACCESS:    4725980  HIT:    2936994  MISS:    1788986
cpu0_STLB RFO       ACCESS:     569045  HIT:      29003  MISS:     540042
cpu0_STLB PREFETCH  ACCESS:          0  HIT:          0  MISS:          0
cpu0_STLB WRITEBACK ACCESS:          0  HIT:          0  MISS:          0
cpu0_STLB TRANSLATION ACCESS:          0  HIT:          0  MISS:          0
cpu0_STLB PREFETCH  REQUESTED:          0  ISSUED:          0  USEFUL:          0  USELESS:          0
cpu0_STLB AVERAGE MISS LATENCY: 11.848 cycles
cpu0_L1D TOTAL     ACCESS:  457403036  HIT:  439042952  MISS:   18360084
cpu0_L1D LOAD      ACCESS:  159718171  HIT:  151390814  MISS:    8327357
cpu0_L1D RFO       ACCESS:  137363090  HIT:  136052809  MISS:    1310281
cpu0_L1D PREFETCH  ACCESS:  158006426  HIT:  149319509  MISS:    8686917
cpu0_L1D WRITEBACK ACCESS:          0  HIT:          0  MISS:          0
cpu0_L1D TRANSLATION ACCESS:    2315349  HIT:    2279820  MISS:      35529
cpu0_L1D PREFETCH  REQUESTED:  160294093  ISSUED:  159650205  USEFUL:    4457633  USELESS:    4296066
cpu0_L1D AVERAGE MISS LATENCY: 148.36 cycles
cpu0_L2C TOTAL     ACCESS:   21131029  HIT:    4371582  MISS:   16759447
cpu0_L2C LOAD      ACCESS:    8273813  HIT:     947441  MISS:    7326372
cpu0_L2C RFO       ACCESS:    1299694  HIT:      13474  MISS:    1286220
cpu0_L2C PREFETCH  ACCESS:    9218210  HIT:    1086074  MISS:    8132136
cpu0_L2C WRITEBACK ACCESS:    2303783  HIT:    2297294  MISS:       6489
cpu0_L2C TRANSLATION ACCESS:      35529  HIT:      27299  MISS:       8230
cpu0_L2C PREFETCH  REQUESTED:     481294  ISSUED:     472541  USEFUL:      98236  USELESS:     191306
cpu0_L2C AVERAGE MISS LATENCY: 153.129 cycles
LLC TOTAL     ACCESS:   19024800  HIT:   14451257  MISS:    4573543
LLC LOAD      ACCESS:    7326361  HIT:    5791028  MISS:    1535333
LLC RFO       ACCESS:    1286219  HIT:       3298  MISS:    1282921
LLC PREFETCH  ACCESS:    8135705  HIT:    6432696  MISS:    1703009
LLC WRITEBACK ACCESS:    2268285  HIT:    2216244  MISS:      52041
LLC TRANSLATION ACCESS:       8230  HIT:       7991  MISS:        239
LLC PREFETCH  REQUESTED:          0  ISSUED:          0  USEFUL:          0  USELESS:          0
LLC AVERAGE MISS LATENCY: 462.765 cycles

DRAM Statistics
 CHANNEL 0
 RQ ROW_BUFFER_HIT:     401942  ROW_BUFFER_MISS:    4119505
 DBUS AVG_CONGESTED_CYCLE:    3.84194
 WQ ROW_BUFFER_HIT:     262950  ROW_BUFFER_MISS:    1656911  FULL:          0


CPU 0 Branch Prediction Accuracy: 92.9219% MPKI: 16.69 Average ROB Occupancy at Mispredict: 28.7384
Branch type MPKI
BRANCH_DIRECT_JUMP: 0.000223
BRANCH_INDIRECT: 0.103654
BRANCH_CONDITIONAL: 16.5852
BRANCH_DIRECT_CALL: 0.000322
BRANCH_INDIRECT_CALL: 0.000204
BRANCH_RETURN: 0.000382

