
*** ChampSim Multicore Out-of-Order Simulator ***

Warmup Instructions: 1000000
Simulation Instructions: 1000000000
Number of CPUs: 1
Off-chip DRAM Size: 4 GiB Channels: 1 Width: 64-bit Data Rate: 3200 MT/s

VirtualMemory physical capacity: 8588881920 num_ppages: 2096895
VirtualMemory page size: 4096 log2_page_size: 12

CPU 0 runs tracer/pin/traces/spec2k17/623.xalancbmk_s-700B.champsimtrace.xz
Basic BTB sets: 1024 ways: 8 indirect buffer size: 4096 RAS size: 64
cpu0_L1D next line prefetcher
cpu0_L2C IP-based stride prefetcher
WARNING: The extended signature CACHE::prefetch_line(ip, base_addr, pf_addr, fill_this_level, prefetch_metadata) is deprecated.
WARNING: Use CACHE::prefetch_line(pf_addr, fill_this_level, prefetch_metadata) instead.

Warmup complete CPU 0 instructions: 1000002 cycles: 281106 (Simulation time: 0 hr 0 min 3 sec) 

Heartbeat CPU 0 instructions: 10000000 cycles: 12058736 heartbeat IPC: 0.829274 cumulative IPC: 0.76416 (Simulation time: 0 hr 1 min 0 sec) 
Heartbeat CPU 0 instructions: 20000001 cycles: 25626083 heartbeat IPC: 0.737064 cumulative IPC: 0.749655 (Simulation time: 0 hr 2 min 19 sec) 
Heartbeat CPU 0 instructions: 30000002 cycles: 43130048 heartbeat IPC: 0.571299 cumulative IPC: 0.676796 (Simulation time: 0 hr 3 min 37 sec) 
Heartbeat CPU 0 instructions: 40000003 cycles: 56797343 heartbeat IPC: 0.731674 cumulative IPC: 0.690067 (Simulation time: 0 hr 4 min 49 sec) 
Heartbeat CPU 0 instructions: 50000003 cycles: 69546435 heartbeat IPC: 0.78437 cumulative IPC: 0.707425 (Simulation time: 0 hr 6 min 1 sec) 
Heartbeat CPU 0 instructions: 60000004 cycles: 81042760 heartbeat IPC: 0.869843 cumulative IPC: 0.730545 (Simulation time: 0 hr 7 min 9 sec) 
Heartbeat CPU 0 instructions: 70000000 cycles: 96892959 heartbeat IPC: 0.630907 cumulative IPC: 0.714198 (Simulation time: 0 hr 8 min 39 sec) 
Heartbeat CPU 0 instructions: 80000000 cycles: 114337635 heartbeat IPC: 0.573241 cumulative IPC: 0.692639 (Simulation time: 0 hr 10 min 14 sec) 
Heartbeat CPU 0 instructions: 90000000 cycles: 129285134 heartbeat IPC: 0.669008 cumulative IPC: 0.689901 (Simulation time: 0 hr 11 min 47 sec) 
Heartbeat CPU 0 instructions: 100000001 cycles: 145627435 heartbeat IPC: 0.611909 cumulative IPC: 0.681132 (Simulation time: 0 hr 13 min 29 sec) 
Heartbeat CPU 0 instructions: 110000000 cycles: 159635982 heartbeat IPC: 0.71385 cumulative IPC: 0.684008 (Simulation time: 0 hr 14 min 59 sec) 
Heartbeat CPU 0 instructions: 120000002 cycles: 172599161 heartbeat IPC: 0.771416 cumulative IPC: 0.690583 (Simulation time: 0 hr 16 min 28 sec) 
Heartbeat CPU 0 instructions: 130000000 cycles: 184314982 heartbeat IPC: 0.853547 cumulative IPC: 0.700958 (Simulation time: 0 hr 17 min 57 sec) 
Heartbeat CPU 0 instructions: 140000000 cycles: 200138356 heartbeat IPC: 0.631976 cumulative IPC: 0.695496 (Simulation time: 0 hr 19 min 52 sec) 
Heartbeat CPU 0 instructions: 150000000 cycles: 216089056 heartbeat IPC: 0.626932 cumulative IPC: 0.690429 (Simulation time: 0 hr 21 min 40 sec) 
Heartbeat CPU 0 instructions: 160000003 cycles: 232265919 heartbeat IPC: 0.618167 cumulative IPC: 0.68539 (Simulation time: 0 hr 23 min 36 sec) 
Heartbeat CPU 0 instructions: 170000003 cycles: 247956851 heartbeat IPC: 0.637311 cumulative IPC: 0.682344 (Simulation time: 0 hr 25 min 27 sec) 
Heartbeat CPU 0 instructions: 180000000 cycles: 262176336 heartbeat IPC: 0.70326 cumulative IPC: 0.683479 (Simulation time: 0 hr 27 min 7 sec) 
Heartbeat CPU 0 instructions: 190000004 cycles: 275306451 heartbeat IPC: 0.761608 cumulative IPC: 0.687209 (Simulation time: 0 hr 28 min 41 sec) 
Heartbeat CPU 0 instructions: 200000003 cycles: 287220547 heartbeat IPC: 0.839342 cumulative IPC: 0.693526 (Simulation time: 0 hr 30 min 13 sec) 
Heartbeat CPU 0 instructions: 210000002 cycles: 300084896 heartbeat IPC: 0.777342 cumulative IPC: 0.697123 (Simulation time: 0 hr 31 min 53 sec) 
Heartbeat CPU 0 instructions: 220000000 cycles: 318411333 heartbeat IPC: 0.54566 cumulative IPC: 0.688397 (Simulation time: 0 hr 33 min 55 sec) 
Heartbeat CPU 0 instructions: 230000001 cycles: 332700182 heartbeat IPC: 0.699847 cumulative IPC: 0.688889 (Simulation time: 0 hr 35 min 37 sec) 
Heartbeat CPU 0 instructions: 240000003 cycles: 345849739 heartbeat IPC: 0.760482 cumulative IPC: 0.691614 (Simulation time: 0 hr 37 min 10 sec) 
Heartbeat CPU 0 instructions: 250000004 cycles: 358156220 heartbeat IPC: 0.81258 cumulative IPC: 0.695773 (Simulation time: 0 hr 38 min 41 sec) 
Heartbeat CPU 0 instructions: 260000001 cycles: 369533495 heartbeat IPC: 0.878945 cumulative IPC: 0.701417 (Simulation time: 0 hr 40 min 8 sec) 
Heartbeat CPU 0 instructions: 270000001 cycles: 379448769 heartbeat IPC: 1.00855 cumulative IPC: 0.709449 (Simulation time: 0 hr 41 min 34 sec) 
Heartbeat CPU 0 instructions: 280000001 cycles: 390743217 heartbeat IPC: 0.885391 cumulative IPC: 0.714538 (Simulation time: 0 hr 43 min 8 sec) 
Heartbeat CPU 0 instructions: 290000001 cycles: 405780556 heartbeat IPC: 0.665011 cumulative IPC: 0.712701 (Simulation time: 0 hr 44 min 57 sec) 
Heartbeat CPU 0 instructions: 300000000 cycles: 425003070 heartbeat IPC: 0.520223 cumulative IPC: 0.70399 (Simulation time: 0 hr 46 min 58 sec) 
Heartbeat CPU 0 instructions: 310000000 cycles: 438668040 heartbeat IPC: 0.731798 cumulative IPC: 0.704857 (Simulation time: 0 hr 48 min 37 sec) 
Heartbeat CPU 0 instructions: 320000004 cycles: 455288655 heartbeat IPC: 0.601663 cumulative IPC: 0.701087 (Simulation time: 0 hr 50 min 37 sec) 
Heartbeat CPU 0 instructions: 330000001 cycles: 469902482 heartbeat IPC: 0.684283 cumulative IPC: 0.700564 (Simulation time: 0 hr 52 min 20 sec) 
Heartbeat CPU 0 instructions: 340000002 cycles: 483222394 heartbeat IPC: 0.750756 cumulative IPC: 0.701949 (Simulation time: 0 hr 53 min 54 sec) 
Heartbeat CPU 0 instructions: 350000001 cycles: 495618116 heartbeat IPC: 0.80673 cumulative IPC: 0.704571 (Simulation time: 0 hr 55 min 24 sec) 
Heartbeat CPU 0 instructions: 360000000 cycles: 507476155 heartbeat IPC: 0.84331 cumulative IPC: 0.707814 (Simulation time: 0 hr 56 min 51 sec) 
Heartbeat CPU 0 instructions: 370000002 cycles: 518959070 heartbeat IPC: 0.870859 cumulative IPC: 0.711424 (Simulation time: 0 hr 58 min 21 sec) 
Heartbeat CPU 0 instructions: 380000003 cycles: 528248312 heartbeat IPC: 1.07651 cumulative IPC: 0.717848 (Simulation time: 0 hr 59 min 44 sec) 
Heartbeat CPU 0 instructions: 390000001 cycles: 537656089 heartbeat IPC: 1.06295 cumulative IPC: 0.723889 (Simulation time: 1 hr 1 min 7 sec) 
Heartbeat CPU 0 instructions: 400000001 cycles: 548633762 heartbeat IPC: 0.91094 cumulative IPC: 0.727634 (Simulation time: 1 hr 2 min 37 sec) 
Heartbeat CPU 0 instructions: 410000000 cycles: 562080737 heartbeat IPC: 0.743662 cumulative IPC: 0.728018 (Simulation time: 1 hr 4 min 18 sec) 
Heartbeat CPU 0 instructions: 420000000 cycles: 582156376 heartbeat IPC: 0.498116 cumulative IPC: 0.720086 (Simulation time: 1 hr 6 min 24 sec) 
Heartbeat CPU 0 instructions: 430000000 cycles: 596831927 heartbeat IPC: 0.681405 cumulative IPC: 0.719134 (Simulation time: 1 hr 8 min 6 sec) 
Heartbeat CPU 0 instructions: 440000001 cycles: 610177322 heartbeat IPC: 0.749322 cumulative IPC: 0.719795 (Simulation time: 1 hr 9 min 40 sec) 
Heartbeat CPU 0 instructions: 450000002 cycles: 622674626 heartbeat IPC: 0.800173 cumulative IPC: 0.721409 (Simulation time: 1 hr 11 min 11 sec) 
Heartbeat CPU 0 instructions: 460000003 cycles: 634559396 heartbeat IPC: 0.841413 cumulative IPC: 0.723657 (Simulation time: 1 hr 12 min 50 sec) 
Heartbeat CPU 0 instructions: 470000003 cycles: 652941958 heartbeat IPC: 0.543994 cumulative IPC: 0.718597 (Simulation time: 1 hr 14 min 51 sec) 
Heartbeat CPU 0 instructions: 480000004 cycles: 666950803 heartbeat IPC: 0.713835 cumulative IPC: 0.718497 (Simulation time: 1 hr 16 min 28 sec) 
Heartbeat CPU 0 instructions: 490000003 cycles: 679743674 heartbeat IPC: 0.781685 cumulative IPC: 0.719686 (Simulation time: 1 hr 18 min 3 sec) 
Heartbeat CPU 0 instructions: 500000004 cycles: 696970616 heartbeat IPC: 0.580486 cumulative IPC: 0.716244 (Simulation time: 1 hr 20 min 2 sec) 
Heartbeat CPU 0 instructions: 510000000 cycles: 712204920 heartbeat IPC: 0.656413 cumulative IPC: 0.714964 (Simulation time: 1 hr 21 min 46 sec) 
Heartbeat CPU 0 instructions: 520000003 cycles: 725957242 heartbeat IPC: 0.72715 cumulative IPC: 0.715195 (Simulation time: 1 hr 23 min 22 sec) 
Heartbeat CPU 0 instructions: 530000000 cycles: 738710132 heartbeat IPC: 0.784136 cumulative IPC: 0.716386 (Simulation time: 1 hr 24 min 53 sec) 
Heartbeat CPU 0 instructions: 540000004 cycles: 750737844 heartbeat IPC: 0.831414 cumulative IPC: 0.718229 (Simulation time: 1 hr 26 min 18 sec) 
Heartbeat CPU 0 instructions: 550000000 cycles: 762351961 heartbeat IPC: 0.861021 cumulative IPC: 0.720405 (Simulation time: 1 hr 27 min 40 sec) 
Heartbeat CPU 0 instructions: 560000002 cycles: 773753591 heartbeat IPC: 0.877068 cumulative IPC: 0.722715 (Simulation time: 1 hr 29 min 1 sec) 
Heartbeat CPU 0 instructions: 570000000 cycles: 782520386 heartbeat IPC: 1.14067 cumulative IPC: 0.727399 (Simulation time: 1 hr 30 min 14 sec) 
Heartbeat CPU 0 instructions: 580000001 cycles: 791528859 heartbeat IPC: 1.11007 cumulative IPC: 0.731756 (Simulation time: 1 hr 31 min 29 sec) 
Heartbeat CPU 0 instructions: 590000002 cycles: 801766638 heartbeat IPC: 0.976774 cumulative IPC: 0.734885 (Simulation time: 1 hr 32 min 45 sec) 
Heartbeat CPU 0 instructions: 600000001 cycles: 813764596 heartbeat IPC: 0.833475 cumulative IPC: 0.736339 (Simulation time: 1 hr 34 min 7 sec) 
Heartbeat CPU 0 instructions: 610000001 cycles: 829121768 heartbeat IPC: 0.651162 cumulative IPC: 0.734761 (Simulation time: 1 hr 35 min 42 sec) 
Heartbeat CPU 0 instructions: 620000001 cycles: 849287679 heartbeat IPC: 0.495886 cumulative IPC: 0.729087 (Simulation time: 1 hr 37 min 31 sec) 
Heartbeat CPU 0 instructions: 630000003 cycles: 865029328 heartbeat IPC: 0.635258 cumulative IPC: 0.727379 (Simulation time: 1 hr 39 min 11 sec) 
Heartbeat CPU 0 instructions: 640000003 cycles: 881016820 heartbeat IPC: 0.625489 cumulative IPC: 0.72553 (Simulation time: 1 hr 40 min 46 sec) 
Heartbeat CPU 0 instructions: 650000001 cycles: 895087986 heartbeat IPC: 0.710673 cumulative IPC: 0.725296 (Simulation time: 1 hr 42 min 8 sec) 
Heartbeat CPU 0 instructions: 660000000 cycles: 908047203 heartbeat IPC: 0.771652 cumulative IPC: 0.725958 (Simulation time: 1 hr 43 min 29 sec) 
Heartbeat CPU 0 instructions: 670000004 cycles: 920172057 heartbeat IPC: 0.824753 cumulative IPC: 0.72726 (Simulation time: 1 hr 44 min 46 sec) 
Heartbeat CPU 0 instructions: 680000000 cycles: 931885551 heartbeat IPC: 0.853716 cumulative IPC: 0.72885 (Simulation time: 1 hr 45 min 50 sec) 
Heartbeat CPU 0 instructions: 690000001 cycles: 941148603 heartbeat IPC: 1.07956 cumulative IPC: 0.732303 (Simulation time: 1 hr 46 min 58 sec) 
Heartbeat CPU 0 instructions: 700000001 cycles: 952519151 heartbeat IPC: 0.879465 cumulative IPC: 0.73406 (Simulation time: 1 hr 48 min 1 sec) 
Heartbeat CPU 0 instructions: 710000003 cycles: 967582270 heartbeat IPC: 0.663873 cumulative IPC: 0.732967 (Simulation time: 1 hr 49 min 17 sec) 
Heartbeat CPU 0 instructions: 720000003 cycles: 985811878 heartbeat IPC: 0.548558 cumulative IPC: 0.729556 (Simulation time: 1 hr 50 min 48 sec) 
Heartbeat CPU 0 instructions: 730000000 cycles: 1001798357 heartbeat IPC: 0.625528 cumulative IPC: 0.727896 (Simulation time: 1 hr 52 min 9 sec) 
Heartbeat CPU 0 instructions: 740000001 cycles: 1016946925 heartbeat IPC: 0.660128 cumulative IPC: 0.726886 (Simulation time: 1 hr 53 min 29 sec) 
Heartbeat CPU 0 instructions: 750000003 cycles: 1033537366 heartbeat IPC: 0.602757 cumulative IPC: 0.724893 (Simulation time: 1 hr 54 min 48 sec) 
Heartbeat CPU 0 instructions: 760000001 cycles: 1050211734 heartbeat IPC: 0.599723 cumulative IPC: 0.722905 (Simulation time: 1 hr 56 min 15 sec) 
Heartbeat CPU 0 instructions: 770000000 cycles: 1064490164 heartbeat IPC: 0.700357 cumulative IPC: 0.722602 (Simulation time: 1 hr 57 min 39 sec) 
Heartbeat CPU 0 instructions: 780000001 cycles: 1077697462 heartbeat IPC: 0.757157 cumulative IPC: 0.723026 (Simulation time: 1 hr 58 min 56 sec) 
Heartbeat CPU 0 instructions: 790000001 cycles: 1089930838 heartbeat IPC: 0.817436 cumulative IPC: 0.724086 (Simulation time: 2 hr 0 min 5 sec) 
Heartbeat CPU 0 instructions: 800000003 cycles: 1100991596 heartbeat IPC: 0.904097 cumulative IPC: 0.725895 (Simulation time: 2 hr 1 min 17 sec) 
Heartbeat CPU 0 instructions: 810000000 cycles: 1115675696 heartbeat IPC: 0.681009 cumulative IPC: 0.725304 (Simulation time: 2 hr 2 min 42 sec) 
Heartbeat CPU 0 instructions: 820000001 cycles: 1132993914 heartbeat IPC: 0.577427 cumulative IPC: 0.723043 (Simulation time: 2 hr 4 min 18 sec) 
Heartbeat CPU 0 instructions: 830000000 cycles: 1148930047 heartbeat IPC: 0.627505 cumulative IPC: 0.721717 (Simulation time: 2 hr 5 min 55 sec) 
Heartbeat CPU 0 instructions: 840000001 cycles: 1164622180 heartbeat IPC: 0.637262 cumulative IPC: 0.720579 (Simulation time: 2 hr 7 min 29 sec) 
Heartbeat CPU 0 instructions: 850000001 cycles: 1178151120 heartbeat IPC: 0.739156 cumulative IPC: 0.720793 (Simulation time: 2 hr 8 min 52 sec) 
Heartbeat CPU 0 instructions: 860000001 cycles: 1193986508 heartbeat IPC: 0.631497 cumulative IPC: 0.719608 (Simulation time: 2 hr 10 min 36 sec) 
Heartbeat CPU 0 instructions: 870000001 cycles: 1208480604 heartbeat IPC: 0.689936 cumulative IPC: 0.719252 (Simulation time: 2 hr 12 min 6 sec) 
Heartbeat CPU 0 instructions: 880000000 cycles: 1221608302 heartbeat IPC: 0.761748 cumulative IPC: 0.719709 (Simulation time: 2 hr 13 min 32 sec) 
Heartbeat CPU 0 instructions: 890000001 cycles: 1235315095 heartbeat IPC: 0.729565 cumulative IPC: 0.719818 (Simulation time: 2 hr 15 min 8 sec) 
Heartbeat CPU 0 instructions: 900000001 cycles: 1253040939 heartbeat IPC: 0.564148 cumulative IPC: 0.717616 (Simulation time: 2 hr 17 min 2 sec) 
Heartbeat CPU 0 instructions: 910000000 cycles: 1267336813 heartbeat IPC: 0.699502 cumulative IPC: 0.717411 (Simulation time: 2 hr 18 min 32 sec) 
Heartbeat CPU 0 instructions: 920000004 cycles: 1280475128 heartbeat IPC: 0.761133 cumulative IPC: 0.71786 (Simulation time: 2 hr 19 min 57 sec) 
Heartbeat CPU 0 instructions: 930000000 cycles: 1292402473 heartbeat IPC: 0.838409 cumulative IPC: 0.718973 (Simulation time: 2 hr 21 min 17 sec) 
Heartbeat CPU 0 instructions: 940000001 cycles: 1309656781 heartbeat IPC: 0.579565 cumulative IPC: 0.717136 (Simulation time: 2 hr 23 min 0 sec) 
Heartbeat CPU 0 instructions: 950000003 cycles: 1323784605 heartbeat IPC: 0.707823 cumulative IPC: 0.717036 (Simulation time: 2 hr 24 min 24 sec) 
Heartbeat CPU 0 instructions: 960000001 cycles: 1340095308 heartbeat IPC: 0.613094 cumulative IPC: 0.715771 (Simulation time: 2 hr 26 min 1 sec) 
Heartbeat CPU 0 instructions: 970000003 cycles: 1354269653 heartbeat IPC: 0.7055 cumulative IPC: 0.715663 (Simulation time: 2 hr 27 min 22 sec) 
Heartbeat CPU 0 instructions: 980000000 cycles: 1367366679 heartbeat IPC: 0.763532 cumulative IPC: 0.716122 (Simulation time: 2 hr 28 min 37 sec) 
Heartbeat CPU 0 instructions: 990000001 cycles: 1379584495 heartbeat IPC: 0.818477 cumulative IPC: 0.717029 (Simulation time: 2 hr 29 min 51 sec) 
Heartbeat CPU 0 instructions: 1000000003 cycles: 1390296320 heartbeat IPC: 0.933548 cumulative IPC: 0.718697 (Simulation time: 2 hr 31 min 0 sec) 
Finished CPU 0 instructions: 1000000004 cycles: 1391049055 cumulative IPC: 0.718882 (Simulation time: 2 hr 31 min 6 sec) 

ChampSim completed all CPUs

Region of Interest Statistics

CPU 0 cumulative IPC: 0.718882 instructions: 1000000004 cycles: 1391049055
cpu0_DTLB TOTAL     ACCESS:  171946267  HIT:  145079905  MISS:   26866362
cpu0_DTLB LOAD      ACCESS:  138149790  HIT:  111797879  MISS:   26351911
cpu0_DTLB RFO       ACCESS:   33796477  HIT:   33282026  MISS:     514451
cpu0_DTLB PREFETCH  ACCESS:          0  HIT:          0  MISS:          0
cpu0_DTLB WRITEBACK ACCESS:          0  HIT:          0  MISS:          0
cpu0_DTLB TRANSLATION ACCESS:          0  HIT:          0  MISS:          0
cpu0_DTLB PREFETCH  REQUESTED:          0  ISSUED:          0  USEFUL:          0  USELESS:          0
cpu0_DTLB AVERAGE MISS LATENCY: 9.57747 cycles
cpu0_ITLB TOTAL     ACCESS:   49629306  HIT:   49255522  MISS:     373784
cpu0_ITLB LOAD      ACCESS:   49629306  HIT:   49255522  MISS:     373784
cpu0_ITLB RFO       ACCESS:          0  HIT:          0  MISS:          0
cpu0_ITLB PREFETCH  ACCESS:          0  HIT:          0  MISS:          0
cpu0_ITLB WRITEBACK ACCESS:          0  HIT:          0  MISS:          0
cpu0_ITLB TRANSLATION ACCESS:          0  HIT:          0  MISS:          0
cpu0_ITLB PREFETCH  REQUESTED:          0  ISSUED:          0  USEFUL:          0  USELESS:          0
cpu0_ITLB AVERAGE MISS LATENCY: 10.0693 cycles
cpu0_L1I TOTAL     ACCESS:   46020329  HIT:   44275347  MISS:    1744982
cpu0_L1I LOAD      ACCESS:   46020329  HIT:   44275347  MISS:    1744982
cpu0_L1I RFO       ACCESS:          0  HIT:          0  MISS:          0
cpu0_L1I PREFETCH  ACCESS:          0  HIT:          0  MISS:          0
cpu0_L1I WRITEBACK ACCESS:          0  HIT:          0  MISS:          0
cpu0_L1I TRANSLATION ACCESS:          0  HIT:          0  MISS:          0
cpu0_L1I PREFETCH  REQUESTED:          0  ISSUED:          0  USEFUL:          0  USELESS:          0
cpu0_L1I AVERAGE MISS LATENCY: 23.8523 cycles
cpu0_STLB TOTAL     ACCESS:   27240146  HIT:   25690294  MISS:    1549852
cpu0_STLB LOAD      ACCESS:   26725695  HIT:   25219877  MISS:    1505818
cpu0_STLB RFO       ACCESS:     514451  HIT:     470417  MISS:      44034
cpu0_STLB PREFETCH  ACCESS:          0  HIT:          0  MISS:          0
cpu0_STLB WRITEBACK ACCESS:          0  HIT:          0  MISS:          0
cpu0_STLB TRANSLATION ACCESS:          0  HIT:          0  MISS:          0
cpu0_STLB PREFETCH  REQUESTED:          0  ISSUED:          0  USEFUL:          0  USELESS:          0
cpu0_STLB AVERAGE MISS LATENCY: 10.1624 cycles
cpu0_L1D TOTAL     ACCESS:  322646509  HIT:  237101198  MISS:   85545311
cpu0_L1D LOAD      ACCESS:  141581518  HIT:   91434178  MISS:   50147340
cpu0_L1D RFO       ACCESS:   64620600  HIT:   63027879  MISS:    1592721
cpu0_L1D PREFETCH  ACCESS:  114920280  HIT:   81302236  MISS:   33618044
cpu0_L1D WRITEBACK ACCESS:          0  HIT:          0  MISS:          0
cpu0_L1D TRANSLATION ACCESS:    1524111  HIT:    1336905  MISS:     187206
cpu0_L1D PREFETCH  REQUESTED:  150824771  ISSUED:  150521632  USEFUL:   21511663  USELESS:   21016766
cpu0_L1D AVERAGE MISS LATENCY: 31.3739 cycles
cpu0_L2C TOTAL     ACCESS:  101077882  HIT:   51024673  MISS:   50053209
cpu0_L2C LOAD      ACCESS:   43022215  HIT:   16137709  MISS:   26884506
cpu0_L2C RFO       ACCESS:    1549863  HIT:     308122  MISS:    1241741
cpu0_L2C PREFETCH  ACCESS:   53219152  HIT:   31341418  MISS:   21877734
cpu0_L2C WRITEBACK ACCESS:    3099446  HIT:    3098861  MISS:        585
cpu0_L2C TRANSLATION ACCESS:     187206  HIT:     138563  MISS:      48643
cpu0_L2C PREFETCH  REQUESTED:   19672910  ISSUED:   10878843  USEFUL:     215445  USELESS:     348631
cpu0_L2C AVERAGE MISS LATENCY: 36.6222 cycles
LLC TOTAL     ACCESS:   52123934  HIT:   50606681  MISS:    1517253
LLC LOAD      ACCESS:   26884457  HIT:   26690380  MISS:     194077
LLC RFO       ACCESS:    1241740  HIT:     249044  MISS:     992696
LLC PREFETCH  ACCESS:   21885972  HIT:   21564555  MISS:     321417
LLC WRITEBACK ACCESS:    2063122  HIT:    2054136  MISS:       8986
LLC TRANSLATION ACCESS:      48643  HIT:      48566  MISS:         77
LLC PREFETCH  REQUESTED:          0  ISSUED:          0  USEFUL:          0  USELESS:          0
LLC AVERAGE MISS LATENCY: 318.76 cycles

DRAM Statistics
 CHANNEL 0
 RQ ROW_BUFFER_HIT:     538000  ROW_BUFFER_MISS:     970223
 DBUS AVG_CONGESTED_CYCLE:    3.90291
 WQ ROW_BUFFER_HIT:     101028  ROW_BUFFER_MISS:    1122729  FULL:          0


CPU 0 Branch Prediction Accuracy: 97.8209% MPKI: 6.23464 Average ROB Occupancy at Mispredict: 34.8847
Branch type MPKI
BRANCH_DIRECT_JUMP: 0.000231
BRANCH_INDIRECT: 0.340764
BRANCH_CONDITIONAL: 4.54413
BRANCH_DIRECT_CALL: 0.000455
BRANCH_INDIRECT_CALL: 0.263408
BRANCH_RETURN: 1.08565

