
*** ChampSim Multicore Out-of-Order Simulator ***

Warmup Instructions: 1000000
Simulation Instructions: 1000000000
Number of CPUs: 1
Off-chip DRAM Size: 4 GiB Channels: 1 Width: 64-bit Data Rate: 3200 MT/s

VirtualMemory physical capacity: 8588881920 num_ppages: 2096895
VirtualMemory page size: 4096 log2_page_size: 12

CPU 0 runs tracer/pin/traces/spec2k6/459.GemsFDTD-1491B.champsimtrace.xz
Basic BTB sets: 1024 ways: 8 indirect buffer size: 4096 RAS size: 64
cpu0_L1D next line prefetcher
cpu0_L2C IP-based stride prefetcher
WARNING: The extended signature CACHE::prefetch_line(ip, base_addr, pf_addr, fill_this_level, prefetch_metadata) is deprecated.
WARNING: Use CACHE::prefetch_line(pf_addr, fill_this_level, prefetch_metadata) instead.

Warmup complete CPU 0 instructions: 1000004 cycles: 310305 (Simulation time: 0 hr 0 min 4 sec) 

Heartbeat CPU 0 instructions: 10000001 cycles: 49602283 heartbeat IPC: 0.201604 cumulative IPC: 0.182585 (Simulation time: 0 hr 4 min 32 sec) 
Heartbeat CPU 0 instructions: 20000000 cycles: 104949374 heartbeat IPC: 0.180678 cumulative IPC: 0.181577 (Simulation time: 0 hr 9 min 9 sec) 
Heartbeat CPU 0 instructions: 30000004 cycles: 160402711 heartbeat IPC: 0.180332 cumulative IPC: 0.181145 (Simulation time: 0 hr 14 min 6 sec) 
Heartbeat CPU 0 instructions: 40000003 cycles: 216080101 heartbeat IPC: 0.179606 cumulative IPC: 0.180748 (Simulation time: 0 hr 19 min 14 sec) 
Heartbeat CPU 0 instructions: 50000002 cycles: 271445537 heartbeat IPC: 0.180618 cumulative IPC: 0.180722 (Simulation time: 0 hr 24 min 32 sec) 
Heartbeat CPU 0 instructions: 60000004 cycles: 326752682 heartbeat IPC: 0.180808 cumulative IPC: 0.180736 (Simulation time: 0 hr 30 min 7 sec) 
Heartbeat CPU 0 instructions: 70000001 cycles: 382213184 heartbeat IPC: 0.180308 cumulative IPC: 0.180674 (Simulation time: 0 hr 36 min 10 sec) 
Heartbeat CPU 0 instructions: 80000003 cycles: 437625188 heartbeat IPC: 0.180466 cumulative IPC: 0.180648 (Simulation time: 0 hr 42 min 10 sec) 
Heartbeat CPU 0 instructions: 90000000 cycles: 493211572 heartbeat IPC: 0.1799 cumulative IPC: 0.180564 (Simulation time: 0 hr 48 min 9 sec) 
Heartbeat CPU 0 instructions: 100000002 cycles: 548757938 heartbeat IPC: 0.18003 cumulative IPC: 0.180509 (Simulation time: 0 hr 54 min 10 sec) 
Heartbeat CPU 0 instructions: 110000003 cycles: 604271758 heartbeat IPC: 0.180135 cumulative IPC: 0.180475 (Simulation time: 0 hr 59 min 54 sec) 
Heartbeat CPU 0 instructions: 120000004 cycles: 659573225 heartbeat IPC: 0.180827 cumulative IPC: 0.180505 (Simulation time: 1 hr 5 min 35 sec) 
Heartbeat CPU 0 instructions: 130000003 cycles: 715022883 heartbeat IPC: 0.180344 cumulative IPC: 0.180492 (Simulation time: 1 hr 11 min 24 sec) 
Heartbeat CPU 0 instructions: 140000004 cycles: 770354169 heartbeat IPC: 0.18073 cumulative IPC: 0.180509 (Simulation time: 1 hr 17 min 1 sec) 
Heartbeat CPU 0 instructions: 150000002 cycles: 825827546 heartbeat IPC: 0.180267 cumulative IPC: 0.180493 (Simulation time: 1 hr 22 min 28 sec) 
Heartbeat CPU 0 instructions: 160000001 cycles: 881260410 heartbeat IPC: 0.180398 cumulative IPC: 0.180487 (Simulation time: 1 hr 27 min 51 sec) 
Heartbeat CPU 0 instructions: 170000001 cycles: 936664094 heartbeat IPC: 0.180493 cumulative IPC: 0.180487 (Simulation time: 1 hr 33 min 11 sec) 
Heartbeat CPU 0 instructions: 180000002 cycles: 992036012 heartbeat IPC: 0.180597 cumulative IPC: 0.180493 (Simulation time: 1 hr 38 min 57 sec) 
Heartbeat CPU 0 instructions: 190000002 cycles: 1047490423 heartbeat IPC: 0.180328 cumulative IPC: 0.180485 (Simulation time: 1 hr 44 min 41 sec) 
Heartbeat CPU 0 instructions: 200000000 cycles: 1102945816 heartbeat IPC: 0.180325 cumulative IPC: 0.180477 (Simulation time: 1 hr 50 min 6 sec) 
Heartbeat CPU 0 instructions: 210000004 cycles: 1158546597 heartbeat IPC: 0.179854 cumulative IPC: 0.180447 (Simulation time: 1 hr 55 min 44 sec) 
Heartbeat CPU 0 instructions: 220000000 cycles: 1214093891 heartbeat IPC: 0.180027 cumulative IPC: 0.180428 (Simulation time: 2 hr 1 min 25 sec) 
Heartbeat CPU 0 instructions: 230000004 cycles: 1269493177 heartbeat IPC: 0.180508 cumulative IPC: 0.180431 (Simulation time: 2 hr 7 min 10 sec) 
Heartbeat CPU 0 instructions: 240000003 cycles: 1324943679 heartbeat IPC: 0.180341 cumulative IPC: 0.180427 (Simulation time: 2 hr 12 min 58 sec) 
Heartbeat CPU 0 instructions: 250000003 cycles: 1380284642 heartbeat IPC: 0.180698 cumulative IPC: 0.180438 (Simulation time: 2 hr 18 min 39 sec) 
Heartbeat CPU 0 instructions: 260000002 cycles: 1435750678 heartbeat IPC: 0.18029 cumulative IPC: 0.180432 (Simulation time: 2 hr 24 min 16 sec) 
Heartbeat CPU 0 instructions: 270000000 cycles: 1491190837 heartbeat IPC: 0.180375 cumulative IPC: 0.18043 (Simulation time: 2 hr 30 min 3 sec) 
Heartbeat CPU 0 instructions: 280000003 cycles: 1546571549 heartbeat IPC: 0.180568 cumulative IPC: 0.180435 (Simulation time: 2 hr 35 min 45 sec) 
Heartbeat CPU 0 instructions: 290000000 cycles: 1601928706 heartbeat IPC: 0.180645 cumulative IPC: 0.180442 (Simulation time: 2 hr 41 min 31 sec) 
Heartbeat CPU 0 instructions: 300000002 cycles: 1651796013 heartbeat IPC: 0.200532 cumulative IPC: 0.181049 (Simulation time: 2 hr 46 min 40 sec) 
Heartbeat CPU 0 instructions: 310000000 cycles: 1676027763 heartbeat IPC: 0.412682 cumulative IPC: 0.184399 (Simulation time: 2 hr 49 min 43 sec) 
Heartbeat CPU 0 instructions: 320000001 cycles: 1699862189 heartbeat IPC: 0.419561 cumulative IPC: 0.187697 (Simulation time: 2 hr 52 min 44 sec) 
Heartbeat CPU 0 instructions: 330000000 cycles: 1723735772 heartbeat IPC: 0.418873 cumulative IPC: 0.190899 (Simulation time: 2 hr 55 min 45 sec) 
Heartbeat CPU 0 instructions: 340000000 cycles: 1747474886 heartbeat IPC: 0.421246 cumulative IPC: 0.194029 (Simulation time: 2 hr 58 min 47 sec) 
Heartbeat CPU 0 instructions: 350000000 cycles: 1771213204 heartbeat IPC: 0.42126 cumulative IPC: 0.197075 (Simulation time: 3 hr 1 min 49 sec) 
Heartbeat CPU 0 instructions: 360000001 cycles: 1794955260 heartbeat IPC: 0.421194 cumulative IPC: 0.20004 (Simulation time: 3 hr 4 min 47 sec) 
Heartbeat CPU 0 instructions: 370000001 cycles: 1818690135 heartbeat IPC: 0.421321 cumulative IPC: 0.202928 (Simulation time: 3 hr 7 min 39 sec) 
Heartbeat CPU 0 instructions: 380000000 cycles: 1842402888 heartbeat IPC: 0.421714 cumulative IPC: 0.205744 (Simulation time: 3 hr 10 min 29 sec) 
Heartbeat CPU 0 instructions: 390000001 cycles: 1866117945 heartbeat IPC: 0.421673 cumulative IPC: 0.208489 (Simulation time: 3 hr 13 min 22 sec) 
Heartbeat CPU 0 instructions: 400000002 cycles: 1889825020 heartbeat IPC: 0.421815 cumulative IPC: 0.211165 (Simulation time: 3 hr 16 min 19 sec) 
Heartbeat CPU 0 instructions: 410000003 cycles: 1913511415 heartbeat IPC: 0.422183 cumulative IPC: 0.213778 (Simulation time: 3 hr 19 min 8 sec) 
Heartbeat CPU 0 instructions: 420000000 cycles: 1937243297 heartbeat IPC: 0.421374 cumulative IPC: 0.216321 (Simulation time: 3 hr 21 min 56 sec) 
Heartbeat CPU 0 instructions: 430000004 cycles: 1971595235 heartbeat IPC: 0.291104 cumulative IPC: 0.217625 (Simulation time: 3 hr 25 min 37 sec) 
Heartbeat CPU 0 instructions: 440000004 cycles: 2097596467 heartbeat IPC: 0.0793643 cumulative IPC: 0.209318 (Simulation time: 3 hr 36 min 19 sec) 
Heartbeat CPU 0 instructions: 450000001 cycles: 2121270865 heartbeat IPC: 0.422397 cumulative IPC: 0.211697 (Simulation time: 3 hr 38 min 53 sec) 
Heartbeat CPU 0 instructions: 460000001 cycles: 2144974577 heartbeat IPC: 0.421875 cumulative IPC: 0.21402 (Simulation time: 3 hr 41 min 13 sec) 
Heartbeat CPU 0 instructions: 470000001 cycles: 2168658423 heartbeat IPC: 0.422229 cumulative IPC: 0.216294 (Simulation time: 3 hr 43 min 39 sec) 
Heartbeat CPU 0 instructions: 480000000 cycles: 2192393277 heartbeat IPC: 0.421321 cumulative IPC: 0.218514 (Simulation time: 3 hr 46 min 2 sec) 
Heartbeat CPU 0 instructions: 490000004 cycles: 2216121794 heartbeat IPC: 0.421434 cumulative IPC: 0.220687 (Simulation time: 3 hr 48 min 29 sec) 
Heartbeat CPU 0 instructions: 500000004 cycles: 2239819968 heartbeat IPC: 0.421973 cumulative IPC: 0.222817 (Simulation time: 3 hr 50 min 49 sec) 
Heartbeat CPU 0 instructions: 510000003 cycles: 2263529824 heartbeat IPC: 0.421765 cumulative IPC: 0.224901 (Simulation time: 3 hr 53 min 15 sec) 
Heartbeat CPU 0 instructions: 520000000 cycles: 2287208558 heartbeat IPC: 0.42232 cumulative IPC: 0.226945 (Simulation time: 3 hr 55 min 37 sec) 
Heartbeat CPU 0 instructions: 530000002 cycles: 2310937595 heartbeat IPC: 0.421425 cumulative IPC: 0.228942 (Simulation time: 3 hr 58 min 1 sec) 
Heartbeat CPU 0 instructions: 540000000 cycles: 2334646810 heartbeat IPC: 0.421777 cumulative IPC: 0.230901 (Simulation time: 4 hr 0 min 20 sec) 
Heartbeat CPU 0 instructions: 550000000 cycles: 2358380371 heartbeat IPC: 0.421344 cumulative IPC: 0.232818 (Simulation time: 4 hr 2 min 35 sec) 
Heartbeat CPU 0 instructions: 560000004 cycles: 2382106213 heartbeat IPC: 0.421482 cumulative IPC: 0.234697 (Simulation time: 4 hr 4 min 45 sec) 
Heartbeat CPU 0 instructions: 570000004 cycles: 2405822343 heartbeat IPC: 0.421654 cumulative IPC: 0.23654 (Simulation time: 4 hr 7 min 3 sec) 
Heartbeat CPU 0 instructions: 580000004 cycles: 2429564451 heartbeat IPC: 0.421193 cumulative IPC: 0.238345 (Simulation time: 4 hr 9 min 21 sec) 
Heartbeat CPU 0 instructions: 590000003 cycles: 2446969874 heartbeat IPC: 0.574534 cumulative IPC: 0.240736 (Simulation time: 4 hr 11 min 17 sec) 
Heartbeat CPU 0 instructions: 600000002 cycles: 2463559492 heartbeat IPC: 0.602787 cumulative IPC: 0.243175 (Simulation time: 4 hr 13 min 12 sec) 
Heartbeat CPU 0 instructions: 610000000 cycles: 2479841227 heartbeat IPC: 0.614185 cumulative IPC: 0.245611 (Simulation time: 4 hr 14 min 58 sec) 
Heartbeat CPU 0 instructions: 620000000 cycles: 2496693885 heartbeat IPC: 0.593378 cumulative IPC: 0.247959 (Simulation time: 4 hr 16 min 58 sec) 
Heartbeat CPU 0 instructions: 630000001 cycles: 2513487547 heartbeat IPC: 0.595463 cumulative IPC: 0.250281 (Simulation time: 4 hr 18 min 50 sec) 
Heartbeat CPU 0 instructions: 640000000 cycles: 2529805864 heartbeat IPC: 0.612808 cumulative IPC: 0.25262 (Simulation time: 4 hr 20 min 42 sec) 
Heartbeat CPU 0 instructions: 650000003 cycles: 2546656380 heartbeat IPC: 0.593454 cumulative IPC: 0.254875 (Simulation time: 4 hr 22 min 31 sec) 
Heartbeat CPU 0 instructions: 660000000 cycles: 2563482128 heartbeat IPC: 0.594327 cumulative IPC: 0.257103 (Simulation time: 4 hr 24 min 28 sec) 
Heartbeat CPU 0 instructions: 670000004 cycles: 2579898751 heartbeat IPC: 0.609139 cumulative IPC: 0.259344 (Simulation time: 4 hr 26 min 11 sec) 
Heartbeat CPU 0 instructions: 680000000 cycles: 2596567640 heartbeat IPC: 0.59992 cumulative IPC: 0.26153 (Simulation time: 4 hr 28 min 0 sec) 
Heartbeat CPU 0 instructions: 690000001 cycles: 2613503485 heartbeat IPC: 0.590464 cumulative IPC: 0.263662 (Simulation time: 4 hr 29 min 52 sec) 
Heartbeat CPU 0 instructions: 700000001 cycles: 2629133517 heartbeat IPC: 0.639794 cumulative IPC: 0.265898 (Simulation time: 4 hr 31 min 22 sec) 
Heartbeat CPU 0 instructions: 710000004 cycles: 2644551536 heartbeat IPC: 0.648592 cumulative IPC: 0.26813 (Simulation time: 4 hr 33 min 6 sec) 
Heartbeat CPU 0 instructions: 720000002 cycles: 2661875666 heartbeat IPC: 0.577229 cumulative IPC: 0.270142 (Simulation time: 4 hr 34 min 50 sec) 
Heartbeat CPU 0 instructions: 730000002 cycles: 2678864903 heartbeat IPC: 0.588608 cumulative IPC: 0.272162 (Simulation time: 4 hr 36 min 30 sec) 
Heartbeat CPU 0 instructions: 740000000 cycles: 2695719010 heartbeat IPC: 0.593327 cumulative IPC: 0.27417 (Simulation time: 4 hr 38 min 9 sec) 
Heartbeat CPU 0 instructions: 750000002 cycles: 2712690588 heartbeat IPC: 0.589221 cumulative IPC: 0.276141 (Simulation time: 4 hr 39 min 57 sec) 
Heartbeat CPU 0 instructions: 760000000 cycles: 2729778931 heartbeat IPC: 0.585194 cumulative IPC: 0.278076 (Simulation time: 4 hr 41 min 33 sec) 
Heartbeat CPU 0 instructions: 770000002 cycles: 2746730074 heartbeat IPC: 0.589931 cumulative IPC: 0.280001 (Simulation time: 4 hr 43 min 7 sec) 
Heartbeat CPU 0 instructions: 780000003 cycles: 2763652541 heartbeat IPC: 0.59093 cumulative IPC: 0.281905 (Simulation time: 4 hr 44 min 39 sec) 
Heartbeat CPU 0 instructions: 790000003 cycles: 2780758179 heartbeat IPC: 0.584603 cumulative IPC: 0.283767 (Simulation time: 4 hr 46 min 16 sec) 
Heartbeat CPU 0 instructions: 800000001 cycles: 2797724431 heartbeat IPC: 0.589405 cumulative IPC: 0.285621 (Simulation time: 4 hr 47 min 52 sec) 
Heartbeat CPU 0 instructions: 810000003 cycles: 2814419508 heartbeat IPC: 0.598979 cumulative IPC: 0.28748 (Simulation time: 4 hr 49 min 48 sec) 
Heartbeat CPU 0 instructions: 820000001 cycles: 2831511904 heartbeat IPC: 0.585055 cumulative IPC: 0.289276 (Simulation time: 4 hr 51 min 21 sec) 
Heartbeat CPU 0 instructions: 830000000 cycles: 2848489154 heartbeat IPC: 0.589023 cumulative IPC: 0.291063 (Simulation time: 4 hr 52 min 55 sec) 
Heartbeat CPU 0 instructions: 840000003 cycles: 2864847349 heartbeat IPC: 0.611315 cumulative IPC: 0.292892 (Simulation time: 4 hr 54 min 25 sec) 
Heartbeat CPU 0 instructions: 850000003 cycles: 2881385228 heartbeat IPC: 0.604672 cumulative IPC: 0.294682 (Simulation time: 4 hr 55 min 55 sec) 
Heartbeat CPU 0 instructions: 860000003 cycles: 2898126010 heartbeat IPC: 0.597344 cumulative IPC: 0.29643 (Simulation time: 4 hr 57 min 25 sec) 
Heartbeat CPU 0 instructions: 870000002 cycles: 2914965261 heartbeat IPC: 0.593851 cumulative IPC: 0.298149 (Simulation time: 4 hr 58 min 56 sec) 
Heartbeat CPU 0 instructions: 880000002 cycles: 2931903629 heartbeat IPC: 0.590376 cumulative IPC: 0.299837 (Simulation time: 5 hr 0 min 27 sec) 
Heartbeat CPU 0 instructions: 890000001 cycles: 2948847611 heartbeat IPC: 0.59018 cumulative IPC: 0.301505 (Simulation time: 5 hr 1 min 58 sec) 
Heartbeat CPU 0 instructions: 900000001 cycles: 2965626196 heartbeat IPC: 0.595998 cumulative IPC: 0.303172 (Simulation time: 5 hr 3 min 27 sec) 
Heartbeat CPU 0 instructions: 910000000 cycles: 2982021771 heartbeat IPC: 0.609921 cumulative IPC: 0.304858 (Simulation time: 5 hr 4 min 57 sec) 
Heartbeat CPU 0 instructions: 920000000 cycles: 2998609838 heartbeat IPC: 0.602843 cumulative IPC: 0.306507 (Simulation time: 5 hr 6 min 27 sec) 
Heartbeat CPU 0 instructions: 930000004 cycles: 3013861369 heartbeat IPC: 0.655672 cumulative IPC: 0.308274 (Simulation time: 5 hr 7 min 47 sec) 
Heartbeat CPU 0 instructions: 940000000 cycles: 3030399637 heartbeat IPC: 0.604658 cumulative IPC: 0.309892 (Simulation time: 5 hr 9 min 16 sec) 
Heartbeat CPU 0 instructions: 950000001 cycles: 3047926070 heartbeat IPC: 0.570567 cumulative IPC: 0.311391 (Simulation time: 5 hr 10 min 49 sec) 
Heartbeat CPU 0 instructions: 960000004 cycles: 3065199398 heartbeat IPC: 0.578927 cumulative IPC: 0.312899 (Simulation time: 5 hr 12 min 20 sec) 
Heartbeat CPU 0 instructions: 970000003 cycles: 3082760222 heartbeat IPC: 0.569449 cumulative IPC: 0.31436 (Simulation time: 5 hr 13 min 54 sec) 
Heartbeat CPU 0 instructions: 980000003 cycles: 3100654053 heartbeat IPC: 0.558852 cumulative IPC: 0.315771 (Simulation time: 5 hr 15 min 28 sec) 
Heartbeat CPU 0 instructions: 990000003 cycles: 3118397401 heartbeat IPC: 0.563591 cumulative IPC: 0.317182 (Simulation time: 5 hr 17 min 8 sec) 
Heartbeat CPU 0 instructions: 1000000002 cycles: 3136001068 heartbeat IPC: 0.568063 cumulative IPC: 0.31859 (Simulation time: 5 hr 18 min 44 sec) 
Finished CPU 0 instructions: 1000000004 cycles: 3137430286 cumulative IPC: 0.318732 (Simulation time: 5 hr 18 min 56 sec) 

ChampSim completed all CPUs

Region of Interest Statistics

CPU 0 cumulative IPC: 0.318732 instructions: 1000000004 cycles: 3137430286
cpu0_DTLB TOTAL     ACCESS:  438817930  HIT:  436117787  MISS:    2700143
cpu0_DTLB LOAD      ACCESS:  393773285  HIT:  391755274  MISS:    2018011
cpu0_DTLB RFO       ACCESS:   45044645  HIT:   44362513  MISS:     682132
cpu0_DTLB PREFETCH  ACCESS:          0  HIT:          0  MISS:          0
cpu0_DTLB WRITEBACK ACCESS:          0  HIT:          0  MISS:          0
cpu0_DTLB TRANSLATION ACCESS:          0  HIT:          0  MISS:          0
cpu0_DTLB PREFETCH  REQUESTED:          0  ISSUED:          0  USEFUL:          0  USELESS:          0
cpu0_DTLB AVERAGE MISS LATENCY: 41.119 cycles
cpu0_ITLB TOTAL     ACCESS:   11793759  HIT:   11793748  MISS:         11
cpu0_ITLB LOAD      ACCESS:   11793759  HIT:   11793748  MISS:         11
cpu0_ITLB RFO       ACCESS:          0  HIT:          0  MISS:          0
cpu0_ITLB PREFETCH  ACCESS:          0  HIT:          0  MISS:          0
cpu0_ITLB WRITEBACK ACCESS:          0  HIT:          0  MISS:          0
cpu0_ITLB TRANSLATION ACCESS:          0  HIT:          0  MISS:          0
cpu0_ITLB PREFETCH  REQUESTED:          0  ISSUED:          0  USEFUL:          0  USELESS:          0
cpu0_ITLB AVERAGE MISS LATENCY: 477.091 cycles
cpu0_L1I TOTAL     ACCESS:   69371329  HIT:   69370877  MISS:        452
cpu0_L1I LOAD      ACCESS:   69371329  HIT:   69370877  MISS:        452
cpu0_L1I RFO       ACCESS:          0  HIT:          0  MISS:          0
cpu0_L1I PREFETCH  ACCESS:          0  HIT:          0  MISS:          0
cpu0_L1I WRITEBACK ACCESS:          0  HIT:          0  MISS:          0
cpu0_L1I TRANSLATION ACCESS:          0  HIT:          0  MISS:          0
cpu0_L1I PREFETCH  REQUESTED:          0  ISSUED:          0  USEFUL:          0  USELESS:          0
cpu0_L1I AVERAGE MISS LATENCY: 908.765 cycles
cpu0_STLB TOTAL     ACCESS:    2700154  HIT:    2068281  MISS:     631873
cpu0_STLB LOAD      ACCESS:    2018022  HIT:    1386150  MISS:     631872
cpu0_STLB RFO       ACCESS:     682132  HIT:     682131  MISS:          1
cpu0_STLB PREFETCH  ACCESS:          0  HIT:          0  MISS:          0
cpu0_STLB WRITEBACK ACCESS:          0  HIT:          0  MISS:          0
cpu0_STLB TRANSLATION ACCESS:          0  HIT:          0  MISS:          0
cpu0_STLB PREFETCH  REQUESTED:          0  ISSUED:          0  USEFUL:          0  USELESS:          0
cpu0_STLB AVERAGE MISS LATENCY: 137.234 cycles
cpu0_L1D TOTAL     ACCESS:  771941560  HIT:  755540035  MISS:   16401525
cpu0_L1D LOAD      ACCESS:  429624428  HIT:  422159228  MISS:    7465200
cpu0_L1D RFO       ACCESS:   66908423  HIT:   66902703  MISS:       5720
cpu0_L1D PREFETCH  ACCESS:  274778220  HIT:  265971812  MISS:    8806408
cpu0_L1D WRITEBACK ACCESS:          0  HIT:          0  MISS:          0
cpu0_L1D TRANSLATION ACCESS:     630489  HIT:     506292  MISS:     124197
cpu0_L1D PREFETCH  REQUESTED:  437122834  ISSUED:  322803683  USEFUL:   12825889  USELESS:    1032584
cpu0_L1D AVERAGE MISS LATENCY: 811.218 cycles
cpu0_L2C TOTAL     ACCESS:   22440340  HIT:    7431086  MISS:   15009254
cpu0_L2C LOAD      ACCESS:    2409220  HIT:     293641  MISS:    2115579
cpu0_L2C RFO       ACCESS:       2979  HIT:       2942  MISS:         37
cpu0_L2C PREFETCH  ACCESS:   14000503  HIT:    1110193  MISS:   12890310
cpu0_L2C WRITEBACK ACCESS:    5903441  HIT:    5902218  MISS:       1223
cpu0_L2C TRANSLATION ACCESS:     124197  HIT:     122092  MISS:       2105
cpu0_L2C PREFETCH  REQUESTED:     182124  ISSUED:     182124  USEFUL:      24060  USELESS:      37427
cpu0_L2C AVERAGE MISS LATENCY: 1448.59 cycles
LLC TOTAL     ACCESS:   20911452  HIT:    6666510  MISS:   14244942
LLC LOAD      ACCESS:    2115579  HIT:     257225  MISS:    1858354
LLC RFO       ACCESS:         37  HIT:          3  MISS:         34
LLC PREFETCH  ACCESS:   12930296  HIT:     716081  MISS:   12214215
LLC WRITEBACK ACCESS:    5863435  HIT:    5691611  MISS:     171824
LLC TRANSLATION ACCESS:       2105  HIT:       1590  MISS:        515
LLC PREFETCH  REQUESTED:          0  ISSUED:          0  USEFUL:          0  USELESS:          0
LLC AVERAGE MISS LATENCY: 1501.56 cycles

DRAM Statistics
 CHANNEL 0
 RQ ROW_BUFFER_HIT:      57305  ROW_BUFFER_MISS:   14015813
 DBUS AVG_CONGESTED_CYCLE:    3.99726
 WQ ROW_BUFFER_HIT:      32496  ROW_BUFFER_MISS:    5821713  FULL:          0


CPU 0 Branch Prediction Accuracy: 98.1793% MPKI: 0.200776 Average ROB Occupancy at Mispredict: 123.664
Branch type MPKI
BRANCH_DIRECT_JUMP: 1.5e-05
BRANCH_INDIRECT: 0
BRANCH_CONDITIONAL: 0.200759
BRANCH_DIRECT_CALL: 1e-06
BRANCH_INDIRECT_CALL: 0
BRANCH_RETURN: 1e-06

