
*** ChampSim Multicore Out-of-Order Simulator ***

Warmup Instructions: 1000000
Simulation Instructions: 1000000000
Number of CPUs: 1
Off-chip DRAM Size: 4 GiB Channels: 1 Width: 64-bit Data Rate: 3200 MT/s

VirtualMemory physical capacity: 8588881920 num_ppages: 2096895
VirtualMemory page size: 4096 log2_page_size: 12

CPU 0 runs tracer/pin/traces/spec2k6/435.gromacs-228B.champsimtrace.xz
Basic BTB sets: 1024 ways: 8 indirect buffer size: 4096 RAS size: 64
cpu0_L1D next line prefetcher
cpu0_L2C IP-based stride prefetcher
WARNING: The extended signature CACHE::prefetch_line(ip, base_addr, pf_addr, fill_this_level, prefetch_metadata) is deprecated.
WARNING: Use CACHE::prefetch_line(pf_addr, fill_this_level, prefetch_metadata) instead.

Warmup complete CPU 0 instructions: 1000004 cycles: 250106 (Simulation time: 0 hr 0 min 3 sec) 

Heartbeat CPU 0 instructions: 10000001 cycles: 3332136 heartbeat IPC: 3.00108 cumulative IPC: 2.92015 (Simulation time: 0 hr 0 min 49 sec) 
Heartbeat CPU 0 instructions: 20000003 cycles: 6719935 heartbeat IPC: 2.95177 cumulative IPC: 2.93671 (Simulation time: 0 hr 1 min 41 sec) 
Heartbeat CPU 0 instructions: 30000004 cycles: 10148817 heartbeat IPC: 2.9164 cumulative IPC: 2.92967 (Simulation time: 0 hr 2 min 33 sec) 
Heartbeat CPU 0 instructions: 40000001 cycles: 13569586 heartbeat IPC: 2.92332 cumulative IPC: 2.92804 (Simulation time: 0 hr 3 min 21 sec) 
Heartbeat CPU 0 instructions: 50000004 cycles: 16981049 heartbeat IPC: 2.93129 cumulative IPC: 2.92871 (Simulation time: 0 hr 4 min 12 sec) 
Heartbeat CPU 0 instructions: 60000000 cycles: 21708424 heartbeat IPC: 2.11534 cumulative IPC: 2.74952 (Simulation time: 0 hr 5 min 8 sec) 
Heartbeat CPU 0 instructions: 70000001 cycles: 26904805 heartbeat IPC: 1.92442 cumulative IPC: 2.58866 (Simulation time: 0 hr 6 min 4 sec) 
Heartbeat CPU 0 instructions: 80000002 cycles: 35740162 heartbeat IPC: 1.13182 cumulative IPC: 2.22598 (Simulation time: 0 hr 7 min 24 sec) 
Heartbeat CPU 0 instructions: 90000000 cycles: 41534909 heartbeat IPC: 1.7257 cumulative IPC: 2.15576 (Simulation time: 0 hr 8 min 20 sec) 
Heartbeat CPU 0 instructions: 100000003 cycles: 45702166 heartbeat IPC: 2.39966 cumulative IPC: 2.17812 (Simulation time: 0 hr 9 min 9 sec) 
Heartbeat CPU 0 instructions: 110000000 cycles: 49137335 heartbeat IPC: 2.91106 cumulative IPC: 2.22962 (Simulation time: 0 hr 9 min 58 sec) 
Heartbeat CPU 0 instructions: 120000002 cycles: 52552639 heartbeat IPC: 2.928 cumulative IPC: 2.27522 (Simulation time: 0 hr 10 min 43 sec) 
Heartbeat CPU 0 instructions: 130000003 cycles: 55978225 heartbeat IPC: 2.91921 cumulative IPC: 2.31481 (Simulation time: 0 hr 11 min 27 sec) 
Heartbeat CPU 0 instructions: 140000004 cycles: 59401436 heartbeat IPC: 2.92123 cumulative IPC: 2.34991 (Simulation time: 0 hr 12 min 16 sec) 
Heartbeat CPU 0 instructions: 150000004 cycles: 62797325 heartbeat IPC: 2.94474 cumulative IPC: 2.3822 (Simulation time: 0 hr 13 min 7 sec) 
Heartbeat CPU 0 instructions: 160000000 cycles: 66186960 heartbeat IPC: 2.95017 cumulative IPC: 2.4114 (Simulation time: 0 hr 13 min 54 sec) 
Heartbeat CPU 0 instructions: 170000003 cycles: 69581372 heartbeat IPC: 2.94602 cumulative IPC: 2.43757 (Simulation time: 0 hr 14 min 46 sec) 
Heartbeat CPU 0 instructions: 180000003 cycles: 72989900 heartbeat IPC: 2.93382 cumulative IPC: 2.46083 (Simulation time: 0 hr 15 min 35 sec) 
Heartbeat CPU 0 instructions: 190000003 cycles: 76333357 heartbeat IPC: 2.99092 cumulative IPC: 2.48412 (Simulation time: 0 hr 16 min 21 sec) 
Heartbeat CPU 0 instructions: 200000001 cycles: 79677469 heartbeat IPC: 2.99033 cumulative IPC: 2.50543 (Simulation time: 0 hr 17 min 6 sec) 
Heartbeat CPU 0 instructions: 210000004 cycles: 82987134 heartbeat IPC: 3.02145 cumulative IPC: 2.52608 (Simulation time: 0 hr 17 min 49 sec) 
Heartbeat CPU 0 instructions: 220000000 cycles: 86323716 heartbeat IPC: 2.99708 cumulative IPC: 2.54433 (Simulation time: 0 hr 18 min 32 sec) 
Heartbeat CPU 0 instructions: 230000000 cycles: 89685421 heartbeat IPC: 2.97468 cumulative IPC: 2.56051 (Simulation time: 0 hr 19 min 16 sec) 
Heartbeat CPU 0 instructions: 240000003 cycles: 93033144 heartbeat IPC: 2.98711 cumulative IPC: 2.5759 (Simulation time: 0 hr 20 min 1 sec) 
Heartbeat CPU 0 instructions: 250000001 cycles: 96373001 heartbeat IPC: 2.99414 cumulative IPC: 2.59043 (Simulation time: 0 hr 20 min 48 sec) 
Heartbeat CPU 0 instructions: 260000000 cycles: 101196634 heartbeat IPC: 2.07313 cumulative IPC: 2.56571 (Simulation time: 0 hr 21 min 40 sec) 
Heartbeat CPU 0 instructions: 270000003 cycles: 106311293 heartbeat IPC: 1.95517 cumulative IPC: 2.53627 (Simulation time: 0 hr 22 min 32 sec) 
Heartbeat CPU 0 instructions: 280000002 cycles: 115913471 heartbeat IPC: 1.04143 cumulative IPC: 2.41217 (Simulation time: 0 hr 23 min 46 sec) 
Heartbeat CPU 0 instructions: 290000000 cycles: 121168019 heartbeat IPC: 1.90311 cumulative IPC: 2.39005 (Simulation time: 0 hr 24 min 39 sec) 
Heartbeat CPU 0 instructions: 300000003 cycles: 125156481 heartbeat IPC: 2.50723 cumulative IPC: 2.39379 (Simulation time: 0 hr 25 min 29 sec) 
Heartbeat CPU 0 instructions: 310000003 cycles: 128574269 heartbeat IPC: 2.92587 cumulative IPC: 2.40796 (Simulation time: 0 hr 26 min 17 sec) 
Heartbeat CPU 0 instructions: 320000002 cycles: 131982298 heartbeat IPC: 2.93425 cumulative IPC: 2.42158 (Simulation time: 0 hr 27 min 4 sec) 
Heartbeat CPU 0 instructions: 330000001 cycles: 135402829 heartbeat IPC: 2.92352 cumulative IPC: 2.43428 (Simulation time: 0 hr 27 min 50 sec) 
Heartbeat CPU 0 instructions: 340000003 cycles: 138815331 heartbeat IPC: 2.9304 cumulative IPC: 2.4465 (Simulation time: 0 hr 28 min 37 sec) 
Heartbeat CPU 0 instructions: 350000000 cycles: 142202746 heartbeat IPC: 2.9521 cumulative IPC: 2.45857 (Simulation time: 0 hr 29 min 22 sec) 
Heartbeat CPU 0 instructions: 360000001 cycles: 145585350 heartbeat IPC: 2.9563 cumulative IPC: 2.47015 (Simulation time: 0 hr 30 min 10 sec) 
Heartbeat CPU 0 instructions: 370000001 cycles: 148980671 heartbeat IPC: 2.94523 cumulative IPC: 2.481 (Simulation time: 0 hr 30 min 59 sec) 
Heartbeat CPU 0 instructions: 380000000 cycles: 152369523 heartbeat IPC: 2.95085 cumulative IPC: 2.49146 (Simulation time: 0 hr 31 min 50 sec) 
Heartbeat CPU 0 instructions: 390000003 cycles: 155700810 heartbeat IPC: 3.00184 cumulative IPC: 2.5024 (Simulation time: 0 hr 32 min 38 sec) 
Heartbeat CPU 0 instructions: 400000004 cycles: 159040842 heartbeat IPC: 2.99398 cumulative IPC: 2.51274 (Simulation time: 0 hr 33 min 29 sec) 
Heartbeat CPU 0 instructions: 410000000 cycles: 162343832 heartbeat IPC: 3.02756 cumulative IPC: 2.52323 (Simulation time: 0 hr 34 min 15 sec) 
Heartbeat CPU 0 instructions: 420000001 cycles: 165685232 heartbeat IPC: 2.99276 cumulative IPC: 2.53271 (Simulation time: 0 hr 35 min 6 sec) 
Heartbeat CPU 0 instructions: 430000003 cycles: 169044622 heartbeat IPC: 2.97673 cumulative IPC: 2.54155 (Simulation time: 0 hr 35 min 52 sec) 
Heartbeat CPU 0 instructions: 440000004 cycles: 172392048 heartbeat IPC: 2.98737 cumulative IPC: 2.55022 (Simulation time: 0 hr 36 min 43 sec) 
Heartbeat CPU 0 instructions: 450000000 cycles: 175726957 heartbeat IPC: 2.99858 cumulative IPC: 2.55874 (Simulation time: 0 hr 37 min 31 sec) 
Heartbeat CPU 0 instructions: 460000000 cycles: 180740193 heartbeat IPC: 1.99472 cumulative IPC: 2.54308 (Simulation time: 0 hr 38 min 33 sec) 
Heartbeat CPU 0 instructions: 470000004 cycles: 186287205 heartbeat IPC: 1.80277 cumulative IPC: 2.521 (Simulation time: 0 hr 39 min 30 sec) 
Heartbeat CPU 0 instructions: 480000000 cycles: 195559053 heartbeat IPC: 1.07853 cumulative IPC: 2.45252 (Simulation time: 0 hr 40 min 46 sec) 
Heartbeat CPU 0 instructions: 490000002 cycles: 200561837 heartbeat IPC: 1.99889 cumulative IPC: 2.4412 (Simulation time: 0 hr 41 min 36 sec) 
Heartbeat CPU 0 instructions: 500000003 cycles: 204429723 heartbeat IPC: 2.58539 cumulative IPC: 2.44393 (Simulation time: 0 hr 42 min 25 sec) 
Heartbeat CPU 0 instructions: 510000004 cycles: 207842210 heartbeat IPC: 2.93041 cumulative IPC: 2.45192 (Simulation time: 0 hr 43 min 14 sec) 
Heartbeat CPU 0 instructions: 520000003 cycles: 211252564 heartbeat IPC: 2.93225 cumulative IPC: 2.45969 (Simulation time: 0 hr 44 min 2 sec) 
Heartbeat CPU 0 instructions: 530000001 cycles: 214670740 heartbeat IPC: 2.92554 cumulative IPC: 2.46711 (Simulation time: 0 hr 44 min 48 sec) 
Heartbeat CPU 0 instructions: 540000000 cycles: 218081664 heartbeat IPC: 2.93176 cumulative IPC: 2.47439 (Simulation time: 0 hr 45 min 34 sec) 
Heartbeat CPU 0 instructions: 550000004 cycles: 221469387 heartbeat IPC: 2.95184 cumulative IPC: 2.4817 (Simulation time: 0 hr 46 min 24 sec) 
Heartbeat CPU 0 instructions: 560000004 cycles: 224850589 heartbeat IPC: 2.95753 cumulative IPC: 2.48886 (Simulation time: 0 hr 47 min 13 sec) 
Heartbeat CPU 0 instructions: 570000004 cycles: 228246330 heartbeat IPC: 2.94487 cumulative IPC: 2.49566 (Simulation time: 0 hr 48 min 2 sec) 
Heartbeat CPU 0 instructions: 580000000 cycles: 231628609 heartbeat IPC: 2.95659 cumulative IPC: 2.50239 (Simulation time: 0 hr 48 min 49 sec) 
Heartbeat CPU 0 instructions: 590000004 cycles: 234955285 heartbeat IPC: 3.006 cumulative IPC: 2.50953 (Simulation time: 0 hr 49 min 37 sec) 
Heartbeat CPU 0 instructions: 600000003 cycles: 238297148 heartbeat IPC: 2.99234 cumulative IPC: 2.51631 (Simulation time: 0 hr 50 min 22 sec) 
Heartbeat CPU 0 instructions: 610000003 cycles: 241603786 heartbeat IPC: 3.02422 cumulative IPC: 2.52327 (Simulation time: 0 hr 51 min 8 sec) 
Heartbeat CPU 0 instructions: 620000001 cycles: 244943969 heartbeat IPC: 2.99385 cumulative IPC: 2.52969 (Simulation time: 0 hr 51 min 56 sec) 
Heartbeat CPU 0 instructions: 630000003 cycles: 248302422 heartbeat IPC: 2.97756 cumulative IPC: 2.53576 (Simulation time: 0 hr 52 min 46 sec) 
Heartbeat CPU 0 instructions: 640000003 cycles: 251646698 heartbeat IPC: 2.99018 cumulative IPC: 2.5418 (Simulation time: 0 hr 53 min 33 sec) 
Heartbeat CPU 0 instructions: 650000000 cycles: 254976875 heartbeat IPC: 3.00284 cumulative IPC: 2.54783 (Simulation time: 0 hr 54 min 22 sec) 
Heartbeat CPU 0 instructions: 660000000 cycles: 260125502 heartbeat IPC: 1.94227 cumulative IPC: 2.53583 (Simulation time: 0 hr 55 min 16 sec) 
Heartbeat CPU 0 instructions: 670000002 cycles: 266217516 heartbeat IPC: 1.64149 cumulative IPC: 2.51535 (Simulation time: 0 hr 56 min 13 sec) 
Heartbeat CPU 0 instructions: 680000001 cycles: 275069424 heartbeat IPC: 1.1297 cumulative IPC: 2.47071 (Simulation time: 0 hr 57 min 21 sec) 
Heartbeat CPU 0 instructions: 690000001 cycles: 279871318 heartbeat IPC: 2.08251 cumulative IPC: 2.46405 (Simulation time: 0 hr 58 min 11 sec) 
Heartbeat CPU 0 instructions: 700000000 cycles: 283584696 heartbeat IPC: 2.69297 cumulative IPC: 2.46705 (Simulation time: 0 hr 59 min 0 sec) 
Heartbeat CPU 0 instructions: 710000000 cycles: 286995858 heartbeat IPC: 2.93155 cumulative IPC: 2.47257 (Simulation time: 0 hr 59 min 47 sec) 
Heartbeat CPU 0 instructions: 720000004 cycles: 290407180 heartbeat IPC: 2.93142 cumulative IPC: 2.47797 (Simulation time: 1 hr 0 min 35 sec) 
Heartbeat CPU 0 instructions: 730000001 cycles: 293828927 heartbeat IPC: 2.92248 cumulative IPC: 2.48315 (Simulation time: 1 hr 1 min 22 sec) 
Heartbeat CPU 0 instructions: 740000000 cycles: 297232036 heartbeat IPC: 2.93849 cumulative IPC: 2.48837 (Simulation time: 1 hr 2 min 7 sec) 
Heartbeat CPU 0 instructions: 750000001 cycles: 300620474 heartbeat IPC: 2.95121 cumulative IPC: 2.49359 (Simulation time: 1 hr 2 min 53 sec) 
Heartbeat CPU 0 instructions: 760000002 cycles: 304002426 heartbeat IPC: 2.95687 cumulative IPC: 2.49875 (Simulation time: 1 hr 3 min 40 sec) 
Heartbeat CPU 0 instructions: 770000002 cycles: 307404653 heartbeat IPC: 2.93925 cumulative IPC: 2.50363 (Simulation time: 1 hr 4 min 26 sec) 
Heartbeat CPU 0 instructions: 780000003 cycles: 310772182 heartbeat IPC: 2.96954 cumulative IPC: 2.50868 (Simulation time: 1 hr 5 min 11 sec) 
Heartbeat CPU 0 instructions: 790000000 cycles: 314097677 heartbeat IPC: 3.00707 cumulative IPC: 2.51396 (Simulation time: 1 hr 5 min 57 sec) 
Heartbeat CPU 0 instructions: 800000001 cycles: 317435499 heartbeat IPC: 2.99597 cumulative IPC: 2.51903 (Simulation time: 1 hr 6 min 44 sec) 
Heartbeat CPU 0 instructions: 810000003 cycles: 320745307 heartbeat IPC: 3.02132 cumulative IPC: 2.52422 (Simulation time: 1 hr 7 min 30 sec) 
Heartbeat CPU 0 instructions: 820000003 cycles: 324088701 heartbeat IPC: 2.99097 cumulative IPC: 2.52904 (Simulation time: 1 hr 8 min 15 sec) 
Heartbeat CPU 0 instructions: 830000001 cycles: 327447454 heartbeat IPC: 2.97729 cumulative IPC: 2.53364 (Simulation time: 1 hr 9 min 0 sec) 
Heartbeat CPU 0 instructions: 840000000 cycles: 330793378 heartbeat IPC: 2.98871 cumulative IPC: 2.53825 (Simulation time: 1 hr 9 min 44 sec) 
Heartbeat CPU 0 instructions: 850000001 cycles: 334123373 heartbeat IPC: 3.00301 cumulative IPC: 2.54288 (Simulation time: 1 hr 10 min 28 sec) 
Heartbeat CPU 0 instructions: 860000003 cycles: 339550303 heartbeat IPC: 1.84266 cumulative IPC: 2.53168 (Simulation time: 1 hr 11 min 15 sec) 
Heartbeat CPU 0 instructions: 870000003 cycles: 346141408 heartbeat IPC: 1.5172 cumulative IPC: 2.51235 (Simulation time: 1 hr 12 min 8 sec) 
Heartbeat CPU 0 instructions: 880000000 cycles: 355677875 heartbeat IPC: 1.04861 cumulative IPC: 2.47308 (Simulation time: 1 hr 12 min 58 sec) 
Heartbeat CPU 0 instructions: 890000002 cycles: 366378000 heartbeat IPC: 0.934569 cumulative IPC: 2.42811 (Simulation time: 1 hr 13 min 46 sec) 
Heartbeat CPU 0 instructions: 900000002 cycles: 375879140 heartbeat IPC: 1.05251 cumulative IPC: 2.39332 (Simulation time: 1 hr 14 min 35 sec) 
Heartbeat CPU 0 instructions: 910000004 cycles: 386848207 heartbeat IPC: 0.911655 cumulative IPC: 2.35128 (Simulation time: 1 hr 15 min 22 sec) 
Heartbeat CPU 0 instructions: 920000002 cycles: 395465445 heartbeat IPC: 1.16046 cumulative IPC: 2.32531 (Simulation time: 1 hr 16 min 10 sec) 
Heartbeat CPU 0 instructions: 930000000 cycles: 405813398 heartbeat IPC: 0.966375 cumulative IPC: 2.29064 (Simulation time: 1 hr 16 min 57 sec) 
Heartbeat CPU 0 instructions: 940000004 cycles: 415124738 heartbeat IPC: 1.07396 cumulative IPC: 2.26333 (Simulation time: 1 hr 17 min 43 sec) 
Heartbeat CPU 0 instructions: 950000000 cycles: 425572690 heartbeat IPC: 0.957125 cumulative IPC: 2.23125 (Simulation time: 1 hr 18 min 29 sec) 
Heartbeat CPU 0 instructions: 960000000 cycles: 434349351 heartbeat IPC: 1.13939 cumulative IPC: 2.20917 (Simulation time: 1 hr 19 min 15 sec) 
Heartbeat CPU 0 instructions: 970000001 cycles: 444366068 heartbeat IPC: 0.998331 cumulative IPC: 2.18186 (Simulation time: 1 hr 20 min 4 sec) 
Heartbeat CPU 0 instructions: 980000002 cycles: 454365125 heartbeat IPC: 1.00009 cumulative IPC: 2.15584 (Simulation time: 1 hr 20 min 50 sec) 
Heartbeat CPU 0 instructions: 990000003 cycles: 459412509 heartbeat IPC: 1.98122 cumulative IPC: 2.15392 (Simulation time: 1 hr 21 min 34 sec) 
Heartbeat CPU 0 instructions: 1000000003 cycles: 465922405 heartbeat IPC: 1.53612 cumulative IPC: 2.14529 (Simulation time: 1 hr 22 min 17 sec) 
Finished CPU 0 instructions: 1000000000 cycles: 466015399 cumulative IPC: 2.14585 (Simulation time: 1 hr 22 min 21 sec) 

ChampSim completed all CPUs

Region of Interest Statistics

CPU 0 cumulative IPC: 2.14585 instructions: 1000000000 cycles: 466015399
cpu0_DTLB TOTAL     ACCESS:  164832532  HIT:  163489482  MISS:    1343050
cpu0_DTLB LOAD      ACCESS:  115994453  HIT:  114677778  MISS:    1316675
cpu0_DTLB RFO       ACCESS:   48838079  HIT:   48811704  MISS:      26375
cpu0_DTLB PREFETCH  ACCESS:          0  HIT:          0  MISS:          0
cpu0_DTLB WRITEBACK ACCESS:          0  HIT:          0  MISS:          0
cpu0_DTLB TRANSLATION ACCESS:          0  HIT:          0  MISS:          0
cpu0_DTLB PREFETCH  REQUESTED:          0  ISSUED:          0  USEFUL:          0  USELESS:          0
cpu0_DTLB AVERAGE MISS LATENCY: 9.42671 cycles
cpu0_ITLB TOTAL     ACCESS:   17758677  HIT:   17758537  MISS:        140
cpu0_ITLB LOAD      ACCESS:   17758677  HIT:   17758537  MISS:        140
cpu0_ITLB RFO       ACCESS:          0  HIT:          0  MISS:          0
cpu0_ITLB PREFETCH  ACCESS:          0  HIT:          0  MISS:          0
cpu0_ITLB WRITEBACK ACCESS:          0  HIT:          0  MISS:          0
cpu0_ITLB TRANSLATION ACCESS:          0  HIT:          0  MISS:          0
cpu0_ITLB PREFETCH  REQUESTED:          0  ISSUED:          0  USEFUL:          0  USELESS:          0
cpu0_ITLB AVERAGE MISS LATENCY: 162.443 cycles
cpu0_L1I TOTAL     ACCESS:   17989417  HIT:   17985151  MISS:       4266
cpu0_L1I LOAD      ACCESS:   17989417  HIT:   17985151  MISS:       4266
cpu0_L1I RFO       ACCESS:          0  HIT:          0  MISS:          0
cpu0_L1I PREFETCH  ACCESS:          0  HIT:          0  MISS:          0
cpu0_L1I WRITEBACK ACCESS:          0  HIT:          0  MISS:          0
cpu0_L1I TRANSLATION ACCESS:          0  HIT:          0  MISS:          0
cpu0_L1I PREFETCH  REQUESTED:          0  ISSUED:          0  USEFUL:          0  USELESS:          0
cpu0_L1I AVERAGE MISS LATENCY: 465.4 cycles
cpu0_STLB TOTAL     ACCESS:    1343190  HIT:    1337568  MISS:       5622
cpu0_STLB LOAD      ACCESS:    1316815  HIT:    1312629  MISS:       4186
cpu0_STLB RFO       ACCESS:      26375  HIT:      24939  MISS:       1436
cpu0_STLB PREFETCH  ACCESS:          0  HIT:          0  MISS:          0
cpu0_STLB WRITEBACK ACCESS:          0  HIT:          0  MISS:          0
cpu0_STLB TRANSLATION ACCESS:          0  HIT:          0  MISS:          0
cpu0_STLB PREFETCH  REQUESTED:          0  ISSUED:          0  USEFUL:          0  USELESS:          0
cpu0_STLB AVERAGE MISS LATENCY: 98.8712 cycles
cpu0_L1D TOTAL     ACCESS:  372956469  HIT:  360473986  MISS:   12482483
cpu0_L1D LOAD      ACCESS:  126597773  HIT:  120285611  MISS:    6312162
cpu0_L1D RFO       ACCESS:  126741983  HIT:  126446487  MISS:     295496
cpu0_L1D PREFETCH  ACCESS:  119611136  HIT:  113739135  MISS:    5872001
cpu0_L1D WRITEBACK ACCESS:          0  HIT:          0  MISS:          0
cpu0_L1D TRANSLATION ACCESS:       5577  HIT:       2753  MISS:       2824
cpu0_L1D PREFETCH  REQUESTED:  131472586  ISSUED:  128654706  USEFUL:    3998591  USELESS:    2669716
cpu0_L1D AVERAGE MISS LATENCY: 35.6277 cycles
cpu0_L2C TOTAL     ACCESS:   15718482  HIT:   13181687  MISS:    2536795
cpu0_L2C LOAD      ACCESS:    5518832  HIT:    4801908  MISS:     716924
cpu0_L2C RFO       ACCESS:     295375  HIT:      59810  MISS:     235565
cpu0_L2C PREFETCH  ACCESS:    6924570  HIT:    5343095  MISS:    1581475
cpu0_L2C WRITEBACK ACCESS:    2976881  HIT:    2975184  MISS:       1697
cpu0_L2C TRANSLATION ACCESS:       2824  HIT:       1690  MISS:       1134
cpu0_L2C PREFETCH  REQUESTED:     268766  ISSUED:     264787  USEFUL:      12505  USELESS:       9401
cpu0_L2C AVERAGE MISS LATENCY: 148.723 cycles
LLC TOTAL     ACCESS:    3395634  HIT:    2735597  MISS:     660037
LLC LOAD      ACCESS:     716920  HIT:     685555  MISS:      31365
LLC RFO       ACCESS:     235562  HIT:      66108  MISS:     169454
LLC PREFETCH  ACCESS:    1582166  HIT:    1127751  MISS:     454415
LLC WRITEBACK ACCESS:     859852  HIT:     855080  MISS:       4772
LLC TRANSLATION ACCESS:       1134  HIT:       1103  MISS:         31
LLC PREFETCH  REQUESTED:          0  ISSUED:          0  USEFUL:          0  USELESS:          0
LLC AVERAGE MISS LATENCY: 469.04 cycles

DRAM Statistics
 CHANNEL 0
 RQ ROW_BUFFER_HIT:      95666  ROW_BUFFER_MISS:     559232
 DBUS AVG_CONGESTED_CYCLE:    3.96374
 WQ ROW_BUFFER_HIT:      12780  ROW_BUFFER_MISS:     212667  FULL:          0


CPU 0 Branch Prediction Accuracy: 91.6282% MPKI: 2.00031 Average ROB Occupancy at Mispredict: 53.8148
Branch type MPKI
BRANCH_DIRECT_JUMP: 0.000156
BRANCH_INDIRECT: 3.8e-05
BRANCH_CONDITIONAL: 1.99984
BRANCH_DIRECT_CALL: 0.00014
BRANCH_INDIRECT_CALL: 4e-06
BRANCH_RETURN: 0.000134

