
*** ChampSim Multicore Out-of-Order Simulator ***

Warmup Instructions: 1000000
Simulation Instructions: 1000000000
Number of CPUs: 1
Off-chip DRAM Size: 4 GiB Channels: 1 Width: 64-bit Data Rate: 3200 MT/s

VirtualMemory physical capacity: 8588881920 num_ppages: 2096895
VirtualMemory page size: 4096 log2_page_size: 12

CPU 0 runs tracer/pin/traces/spec2k6/447.dealII-3B.champsimtrace.xz
Basic BTB sets: 1024 ways: 8 indirect buffer size: 4096 RAS size: 64
cpu0_L1D next line prefetcher
cpu0_L2C IP-based stride prefetcher
WARNING: The extended signature CACHE::prefetch_line(ip, base_addr, pf_addr, fill_this_level, prefetch_metadata) is deprecated.
WARNING: Use CACHE::prefetch_line(pf_addr, fill_this_level, prefetch_metadata) instead.

Warmup complete CPU 0 instructions: 1000003 cycles: 330343 (Simulation time: 0 hr 0 min 3 sec) 

Heartbeat CPU 0 instructions: 10000002 cycles: 9187555 heartbeat IPC: 1.08843 cumulative IPC: 1.01612 (Simulation time: 0 hr 0 min 42 sec) 
Heartbeat CPU 0 instructions: 20000000 cycles: 18964386 heartbeat IPC: 1.02283 cumulative IPC: 1.01964 (Simulation time: 0 hr 1 min 26 sec) 
Heartbeat CPU 0 instructions: 30000000 cycles: 27698005 heartbeat IPC: 1.145 cumulative IPC: 1.05964 (Simulation time: 0 hr 2 min 8 sec) 
Heartbeat CPU 0 instructions: 40000003 cycles: 34682953 heartbeat IPC: 1.43165 cumulative IPC: 1.13528 (Simulation time: 0 hr 2 min 48 sec) 
Heartbeat CPU 0 instructions: 50000001 cycles: 44549232 heartbeat IPC: 1.01355 cumulative IPC: 1.10812 (Simulation time: 0 hr 3 min 32 sec) 
Caught signal: 2
nstructions: 60000004 cycles: 54317370 heartbeat IPC: 1.02374 cumulative IPC: 1.09286 (Simulation time: 0 hr 4 min 14 sec) 
Heartbeat CPU 0 instructions: 70000002 cycles: 63148078 heartbeat IPC: 1.13241 cumulative IPC: 1.09842 (Simulation time: 0 hr 4 min 57 sec) 
Heartbeat CPU 0 instructions: 80000001 cycles: 73175435 heartbeat IPC: 0.997272 cumulative IPC: 1.08449 (Simulation time: 0 hr 5 min 40 sec) 
Heartbeat CPU 0 instructions: 90000003 cycles: 82356518 heartbeat IPC: 1.0892 cumulative IPC: 1.08502 (Simulation time: 0 hr 6 min 23 sec) 
Heartbeat CPU 0 instructions: 100000002 cycles: 90082841 heartbeat IPC: 1.29428 cumulative IPC: 1.10303 (Simulation time: 0 hr 6 min 57 sec) 
Heartbeat CPU 0 instructions: 110000001 cycles: 93101089 heartbeat IPC: 3.31318 cumulative IPC: 1.17494 (Simulation time: 0 hr 7 min 25 sec) 
Heartbeat CPU 0 instructions: 120000000 cycles: 96333733 heartbeat IPC: 3.09344 cumulative IPC: 1.23954 (Simulation time: 0 hr 7 min 54 sec) 
Heartbeat CPU 0 instructions: 130000004 cycles: 102707612 heartbeat IPC: 1.5689 cumulative IPC: 1.26005 (Simulation time: 0 hr 8 min 25 sec) 
Heartbeat CPU 0 instructions: 140000003 cycles: 105741714 heartbeat IPC: 3.29587 cumulative IPC: 1.31864 (Simulation time: 0 hr 8 min 53 sec) 
Heartbeat CPU 0 instructions: 150000000 cycles: 110543849 heartbeat IPC: 2.08241 cumulative IPC: 1.35192 (Simulation time: 0 hr 9 min 23 sec) 
Heartbeat CPU 0 instructions: 160000001 cycles: 115347240 heartbeat IPC: 2.08186 cumulative IPC: 1.38241 (Simulation time: 0 hr 9 min 53 sec) 
Heartbeat CPU 0 instructions: 170000000 cycles: 118358758 heartbeat IPC: 3.32058 cumulative IPC: 1.43186 (Simulation time: 0 hr 10 min 21 sec) 
Heartbeat CPU 0 instructions: 180000004 cycles: 124720261 heartbeat IPC: 1.57196 cumulative IPC: 1.43902 (Simulation time: 0 hr 10 min 52 sec) 
Heartbeat CPU 0 instructions: 190000003 cycles: 127963564 heartbeat IPC: 3.08328 cumulative IPC: 1.48081 (Simulation time: 0 hr 11 min 20 sec) 
Heartbeat CPU 0 instructions: 200000002 cycles: 130970131 heartbeat IPC: 3.32605 cumulative IPC: 1.52327 (Simulation time: 0 hr 11 min 48 sec) 
Heartbeat CPU 0 instructions: 210000000 cycles: 137542158 heartbeat IPC: 1.5216 cumulative IPC: 1.52319 (Simulation time: 0 hr 12 min 20 sec) 
Heartbeat CPU 0 instructions: 220000000 cycles: 140564906 heartbeat IPC: 3.30825 cumulative IPC: 1.56167 (Simulation time: 0 hr 12 min 48 sec) 
Heartbeat CPU 0 instructions: 230000000 cycles: 144880904 heartbeat IPC: 2.31696 cumulative IPC: 1.58422 (Simulation time: 0 hr 13 min 17 sec) 
Heartbeat CPU 0 instructions: 240000003 cycles: 150168734 heartbeat IPC: 1.89114 cumulative IPC: 1.59505 (Simulation time: 0 hr 13 min 47 sec) 
Heartbeat CPU 0 instructions: 250000002 cycles: 153198902 heartbeat IPC: 3.30015 cumulative IPC: 1.62885 (Simulation time: 0 hr 14 min 15 sec) 
Heartbeat CPU 0 instructions: 260000001 cycles: 159092762 heartbeat IPC: 1.69668 cumulative IPC: 1.63137 (Simulation time: 0 hr 14 min 46 sec) 
Heartbeat CPU 0 instructions: 270000001 cycles: 162804460 heartbeat IPC: 2.69418 cumulative IPC: 1.65565 (Simulation time: 0 hr 15 min 15 sec) 
Heartbeat CPU 0 instructions: 280000000 cycles: 165810316 heartbeat IPC: 3.32684 cumulative IPC: 1.686 (Simulation time: 0 hr 15 min 43 sec) 
Heartbeat CPU 0 instructions: 290000004 cycles: 172388608 heartbeat IPC: 1.52015 cumulative IPC: 1.67966 (Simulation time: 0 hr 16 min 14 sec) 
Heartbeat CPU 0 instructions: 300000003 cycles: 175410807 heartbeat IPC: 3.30885 cumulative IPC: 1.70779 (Simulation time: 0 hr 16 min 43 sec) 
Heartbeat CPU 0 instructions: 310000001 cycles: 179437682 heartbeat IPC: 2.48331 cumulative IPC: 1.72522 (Simulation time: 0 hr 17 min 13 sec) 
Heartbeat CPU 0 instructions: 320000002 cycles: 185778527 heartbeat IPC: 1.57708 cumulative IPC: 1.72016 (Simulation time: 0 hr 17 min 49 sec) 
Heartbeat CPU 0 instructions: 330000002 cycles: 189399314 heartbeat IPC: 2.76183 cumulative IPC: 1.74011 (Simulation time: 0 hr 18 min 26 sec) 
Heartbeat CPU 0 instructions: 340000002 cycles: 193031543 heartbeat IPC: 2.75313 cumulative IPC: 1.7592 (Simulation time: 0 hr 19 min 2 sec) 
Heartbeat CPU 0 instructions: 350000001 cycles: 203649377 heartbeat IPC: 0.941812 cumulative IPC: 1.71651 (Simulation time: 0 hr 19 min 46 sec) 
Heartbeat CPU 0 instructions: 360000002 cycles: 214618796 heartbeat IPC: 0.911625 cumulative IPC: 1.67531 (Simulation time: 0 hr 20 min 30 sec) 
Heartbeat CPU 0 instructions: 370000001 cycles: 225348748 heartbeat IPC: 0.931971 cumulative IPC: 1.63987 (Simulation time: 0 hr 21 min 13 sec) 
Heartbeat CPU 0 instructions: 380000002 cycles: 236277618 heartbeat IPC: 0.915008 cumulative IPC: 1.60629 (Simulation time: 0 hr 21 min 57 sec) 
Heartbeat CPU 0 instructions: 390000003 cycles: 247141923 heartbeat IPC: 0.920446 cumulative IPC: 1.5761 (Simulation time: 0 hr 22 min 42 sec) 
Heartbeat CPU 0 instructions: 400000000 cycles: 258074453 heartbeat IPC: 0.914701 cumulative IPC: 1.54805 (Simulation time: 0 hr 23 min 25 sec) 
Heartbeat CPU 0 instructions: 410000002 cycles: 268672892 heartbeat IPC: 0.943535 cumulative IPC: 1.52417 (Simulation time: 0 hr 24 min 7 sec) 
Heartbeat CPU 0 instructions: 420000004 cycles: 273762521 heartbeat IPC: 1.96478 cumulative IPC: 1.53237 (Simulation time: 0 hr 24 min 35 sec) 
Heartbeat CPU 0 instructions: 430000001 cycles: 283905486 heartbeat IPC: 0.985905 cumulative IPC: 1.51283 (Simulation time: 0 hr 25 min 13 sec) 
Heartbeat CPU 0 instructions: 440000000 cycles: 294289862 heartbeat IPC: 0.962985 cumulative IPC: 1.4934 (Simulation time: 0 hr 25 min 51 sec) 
Heartbeat CPU 0 instructions: 450000001 cycles: 304544765 heartbeat IPC: 0.975143 cumulative IPC: 1.47593 (Simulation time: 0 hr 26 min 30 sec) 
Heartbeat CPU 0 instructions: 460000001 cycles: 315788329 heartbeat IPC: 0.889398 cumulative IPC: 1.45503 (Simulation time: 0 hr 27 min 9 sec) 
Heartbeat CPU 0 instructions: 470000001 cycles: 331226990 heartbeat IPC: 0.647725 cumulative IPC: 1.41736 (Simulation time: 0 hr 27 min 47 sec) 
Heartbeat CPU 0 instructions: 480000001 cycles: 347454276 heartbeat IPC: 0.616246 cumulative IPC: 1.37991 (Simulation time: 0 hr 28 min 25 sec) 
Heartbeat CPU 0 instructions: 490000000 cycles: 362914187 heartbeat IPC: 0.646834 cumulative IPC: 1.34865 (Simulation time: 0 hr 29 min 2 sec) 
Heartbeat CPU 0 instructions: 500000000 cycles: 378149941 heartbeat IPC: 0.656351 cumulative IPC: 1.32074 (Simulation time: 0 hr 29 min 39 sec) 
Heartbeat CPU 0 instructions: 510000002 cycles: 393440142 heartbeat IPC: 0.654014 cumulative IPC: 1.2948 (Simulation time: 0 hr 30 min 16 sec) 
Heartbeat CPU 0 instructions: 520000000 cycles: 408683174 heartbeat IPC: 0.656037 cumulative IPC: 1.27096 (Simulation time: 0 hr 30 min 53 sec) 
Heartbeat CPU 0 instructions: 530000000 cycles: 423901766 heartbeat IPC: 0.657091 cumulative IPC: 1.2489 (Simulation time: 0 hr 31 min 30 sec) 
Heartbeat CPU 0 instructions: 540000003 cycles: 438911902 heartbeat IPC: 0.666217 cumulative IPC: 1.22896 (Simulation time: 0 hr 32 min 7 sec) 
Heartbeat CPU 0 instructions: 550000001 cycles: 454320872 heartbeat IPC: 0.648973 cumulative IPC: 1.20928 (Simulation time: 0 hr 32 min 44 sec) 
Heartbeat CPU 0 instructions: 560000000 cycles: 469611248 heartbeat IPC: 0.654006 cumulative IPC: 1.19118 (Simulation time: 0 hr 33 min 21 sec) 
Heartbeat CPU 0 instructions: 570000002 cycles: 484594262 heartbeat IPC: 0.667423 cumulative IPC: 1.17498 (Simulation time: 0 hr 33 min 58 sec) 
Heartbeat CPU 0 instructions: 580000001 cycles: 499736797 heartbeat IPC: 0.660391 cumulative IPC: 1.15938 (Simulation time: 0 hr 34 min 36 sec) 
Heartbeat CPU 0 instructions: 590000000 cycles: 514759596 heartbeat IPC: 0.665655 cumulative IPC: 1.14496 (Simulation time: 0 hr 35 min 13 sec) 
Heartbeat CPU 0 instructions: 600000000 cycles: 529512725 heartbeat IPC: 0.677822 cumulative IPC: 1.13193 (Simulation time: 0 hr 35 min 51 sec) 
Heartbeat CPU 0 instructions: 610000002 cycles: 544592264 heartbeat IPC: 0.66315 cumulative IPC: 1.11895 (Simulation time: 0 hr 36 min 29 sec) 
Heartbeat CPU 0 instructions: 620000003 cycles: 559795246 heartbeat IPC: 0.657766 cumulative IPC: 1.10641 (Simulation time: 0 hr 37 min 9 sec) 
Heartbeat CPU 0 instructions: 630000000 cycles: 574904755 heartbeat IPC: 0.661835 cumulative IPC: 1.09472 (Simulation time: 0 hr 37 min 50 sec) 
Heartbeat CPU 0 instructions: 640000000 cycles: 589889217 heartbeat IPC: 0.667358 cumulative IPC: 1.08386 (Simulation time: 0 hr 38 min 30 sec) 
Heartbeat CPU 0 instructions: 650000000 cycles: 605106731 heartbeat IPC: 0.657138 cumulative IPC: 1.07312 (Simulation time: 0 hr 39 min 14 sec) 
Heartbeat CPU 0 instructions: 660000002 cycles: 620244251 heartbeat IPC: 0.66061 cumulative IPC: 1.06305 (Simulation time: 0 hr 39 min 55 sec) 
Heartbeat CPU 0 instructions: 670000001 cycles: 635331376 heartbeat IPC: 0.662817 cumulative IPC: 1.05354 (Simulation time: 0 hr 40 min 37 sec) 
Heartbeat CPU 0 instructions: 680000002 cycles: 650369232 heartbeat IPC: 0.664988 cumulative IPC: 1.04455 (Simulation time: 0 hr 41 min 19 sec) 
Heartbeat CPU 0 instructions: 690000000 cycles: 665523340 heartbeat IPC: 0.659887 cumulative IPC: 1.03579 (Simulation time: 0 hr 42 min 4 sec) 
Heartbeat CPU 0 instructions: 700000001 cycles: 680866317 heartbeat IPC: 0.651764 cumulative IPC: 1.02713 (Simulation time: 0 hr 42 min 49 sec) 
Heartbeat CPU 0 instructions: 710000002 cycles: 696412077 heartbeat IPC: 0.643262 cumulative IPC: 1.01856 (Simulation time: 0 hr 43 min 32 sec) 
Heartbeat CPU 0 instructions: 720000002 cycles: 711680486 heartbeat IPC: 0.654947 cumulative IPC: 1.01075 (Simulation time: 0 hr 44 min 18 sec) 
Heartbeat CPU 0 instructions: 730000000 cycles: 726761063 heartbeat IPC: 0.663104 cumulative IPC: 1.00354 (Simulation time: 0 hr 45 min 2 sec) 
Heartbeat CPU 0 instructions: 740000002 cycles: 741887985 heartbeat IPC: 0.661073 cumulative IPC: 0.996551 (Simulation time: 0 hr 45 min 46 sec) 
Heartbeat CPU 0 instructions: 750000000 cycles: 757199023 heartbeat IPC: 0.653123 cumulative IPC: 0.989604 (Simulation time: 0 hr 46 min 31 sec) 
Heartbeat CPU 0 instructions: 760000000 cycles: 772617329 heartbeat IPC: 0.64858 cumulative IPC: 0.982795 (Simulation time: 0 hr 47 min 16 sec) 
Heartbeat CPU 0 instructions: 770000000 cycles: 787847644 heartbeat IPC: 0.656585 cumulative IPC: 0.976487 (Simulation time: 0 hr 48 min 1 sec) 
Heartbeat CPU 0 instructions: 780000003 cycles: 835080883 heartbeat IPC: 0.211715 cumulative IPC: 0.933213 (Simulation time: 0 hr 49 min 42 sec) 
Heartbeat CPU 0 instructions: 790000004 cycles: 846137289 heartbeat IPC: 0.904453 cumulative IPC: 0.932837 (Simulation time: 0 hr 50 min 39 sec) 
Heartbeat CPU 0 instructions: 800000003 cycles: 868568078 heartbeat IPC: 0.445816 cumulative IPC: 0.920255 (Simulation time: 0 hr 52 min 5 sec) 
Heartbeat CPU 0 instructions: 810000000 cycles: 895315764 heartbeat IPC: 0.373864 cumulative IPC: 0.903925 (Simulation time: 0 hr 53 min 44 sec) 
Heartbeat CPU 0 instructions: 820000004 cycles: 900697021 heartbeat IPC: 1.8583 cumulative IPC: 0.909629 (Simulation time: 0 hr 54 min 25 sec) 
Heartbeat CPU 0 instructions: 830000003 cycles: 903671265 heartbeat IPC: 3.3622 cumulative IPC: 0.917704 (Simulation time: 0 hr 55 min 5 sec) 
Heartbeat CPU 0 instructions: 840000003 cycles: 909365847 heartbeat IPC: 1.75606 cumulative IPC: 0.922956 (Simulation time: 0 hr 55 min 47 sec) 
Heartbeat CPU 0 instructions: 850000001 cycles: 913175214 heartbeat IPC: 2.62511 cumulative IPC: 0.930059 (Simulation time: 0 hr 56 min 28 sec) 
Heartbeat CPU 0 instructions: 860000000 cycles: 916157389 heartbeat IPC: 3.35326 cumulative IPC: 0.93795 (Simulation time: 0 hr 57 min 8 sec) 
Heartbeat CPU 0 instructions: 870000000 cycles: 922702535 heartbeat IPC: 1.52785 cumulative IPC: 0.942136 (Simulation time: 0 hr 57 min 50 sec) 
Heartbeat CPU 0 instructions: 880000004 cycles: 925659535 heartbeat IPC: 3.38181 cumulative IPC: 0.949932 (Simulation time: 0 hr 58 min 31 sec) 
Heartbeat CPU 0 instructions: 890000001 cycles: 929306255 heartbeat IPC: 2.74219 cumulative IPC: 0.956968 (Simulation time: 0 hr 59 min 10 sec) 
Heartbeat CPU 0 instructions: 900000002 cycles: 935174695 heartbeat IPC: 1.70403 cumulative IPC: 0.961657 (Simulation time: 0 hr 59 min 52 sec) 
Heartbeat CPU 0 instructions: 910000000 cycles: 938177309 heartbeat IPC: 3.33043 cumulative IPC: 0.969241 (Simulation time: 1 hr 0 min 31 sec) 
Heartbeat CPU 0 instructions: 920000000 cycles: 943389093 heartbeat IPC: 1.91873 cumulative IPC: 0.974489 (Simulation time: 1 hr 1 min 13 sec) 
Heartbeat CPU 0 instructions: 930000004 cycles: 947679828 heartbeat IPC: 2.3306 cumulative IPC: 0.980631 (Simulation time: 1 hr 1 min 55 sec) 
Heartbeat CPU 0 instructions: 940000002 cycles: 950672038 heartbeat IPC: 3.34201 cumulative IPC: 0.988066 (Simulation time: 1 hr 2 min 35 sec) 
Heartbeat CPU 0 instructions: 950000002 cycles: 957205372 heartbeat IPC: 1.53061 cumulative IPC: 0.99177 (Simulation time: 1 hr 3 min 19 sec) 
Heartbeat CPU 0 instructions: 960000000 cycles: 960163742 heartbeat IPC: 3.38024 cumulative IPC: 0.999132 (Simulation time: 1 hr 4 min 0 sec) 
Heartbeat CPU 0 instructions: 970000004 cycles: 963342269 heartbeat IPC: 3.14611 cumulative IPC: 1.00622 (Simulation time: 1 hr 4 min 42 sec) 
Heartbeat CPU 0 instructions: 980000000 cycles: 969678357 heartbeat IPC: 1.57826 cumulative IPC: 1.00996 (Simulation time: 1 hr 5 min 25 sec) 
Heartbeat CPU 0 instructions: 990000003 cycles: 972647397 heartbeat IPC: 3.36809 cumulative IPC: 1.01716 (Simulation time: 1 hr 6 min 8 sec) 
Heartbeat CPU 0 instructions: 1000000003 cycles: 977384026 heartbeat IPC: 2.11121 cumulative IPC: 1.02246 (Simulation time: 1 hr 6 min 50 sec) 
Finished CPU 0 instructions: 1000000004 cycles: 977869876 cumulative IPC: 1.02263 (Simulation time: 1 hr 6 min 54 sec) 

ChampSim completed all CPUs

Region of Interest Statistics

CPU 0 cumulative IPC: 1.02263 instructions: 1000000004 cycles: 977869876
cpu0_DTLB TOTAL     ACCESS:  222835291  HIT:  220905129  MISS:    1930162
cpu0_DTLB LOAD      ACCESS:  184683763  HIT:  182969593  MISS:    1714170
cpu0_DTLB RFO       ACCESS:   38151528  HIT:   37935536  MISS:     215992
cpu0_DTLB PREFETCH  ACCESS:          0  HIT:          0  MISS:          0
cpu0_DTLB WRITEBACK ACCESS:          0  HIT:          0  MISS:          0
cpu0_DTLB TRANSLATION ACCESS:          0  HIT:          0  MISS:          0
cpu0_DTLB PREFETCH  REQUESTED:          0  ISSUED:          0  USEFUL:          0  USELESS:          0
cpu0_DTLB AVERAGE MISS LATENCY: 9.24485 cycles
cpu0_ITLB TOTAL     ACCESS:   93570926  HIT:   93568485  MISS:       2441
cpu0_ITLB LOAD      ACCESS:   93570926  HIT:   93568485  MISS:       2441
cpu0_ITLB RFO       ACCESS:          0  HIT:          0  MISS:          0
cpu0_ITLB PREFETCH  ACCESS:          0  HIT:          0  MISS:          0
cpu0_ITLB WRITEBACK ACCESS:          0  HIT:          0  MISS:          0
cpu0_ITLB TRANSLATION ACCESS:          0  HIT:          0  MISS:          0
cpu0_ITLB PREFETCH  REQUESTED:          0  ISSUED:          0  USEFUL:          0  USELESS:          0
cpu0_ITLB AVERAGE MISS LATENCY: 21.746 cycles
cpu0_L1I TOTAL     ACCESS:   25600123  HIT:   25594700  MISS:       5423
cpu0_L1I LOAD      ACCESS:   25600123  HIT:   25594700  MISS:       5423
cpu0_L1I RFO       ACCESS:          0  HIT:          0  MISS:          0
cpu0_L1I PREFETCH  ACCESS:          0  HIT:          0  MISS:          0
cpu0_L1I WRITEBACK ACCESS:          0  HIT:          0  MISS:          0
cpu0_L1I TRANSLATION ACCESS:          0  HIT:          0  MISS:          0
cpu0_L1I PREFETCH  REQUESTED:          0  ISSUED:          0  USEFUL:          0  USELESS:          0
cpu0_L1I AVERAGE MISS LATENCY: 198.536 cycles
cpu0_STLB TOTAL     ACCESS:    1932603  HIT:    1927330  MISS:       5273
cpu0_STLB LOAD      ACCESS:    1716611  HIT:    1713553  MISS:       3058
cpu0_STLB RFO       ACCESS:     215992  HIT:     213777  MISS:       2215
cpu0_STLB PREFETCH  ACCESS:          0  HIT:          0  MISS:          0
cpu0_STLB WRITEBACK ACCESS:          0  HIT:          0  MISS:          0
cpu0_STLB TRANSLATION ACCESS:          0  HIT:          0  MISS:          0
cpu0_STLB PREFETCH  REQUESTED:          0  ISSUED:          0  USEFUL:          0  USELESS:          0
cpu0_STLB AVERAGE MISS LATENCY: 94.4472 cycles
cpu0_L1D TOTAL     ACCESS:  472238152  HIT:  446335538  MISS:   25902614
cpu0_L1D LOAD      ACCESS:  207007645  HIT:  195265584  MISS:   11742061
cpu0_L1D RFO       ACCESS:   60389898  HIT:   59970002  MISS:     419896
cpu0_L1D PREFETCH  ACCESS:  204835341  HIT:  191095215  MISS:   13740126
cpu0_L1D WRITEBACK ACCESS:          0  HIT:          0  MISS:          0
cpu0_L1D TRANSLATION ACCESS:       5268  HIT:       4737  MISS:        531
cpu0_L1D PREFETCH  REQUESTED:  207150251  ISSUED:  205867419  USEFUL:    8546600  USELESS:    5331632
cpu0_L1D AVERAGE MISS LATENCY: 21.6145 cycles
cpu0_L2C TOTAL     ACCESS:   27727666  HIT:   26583783  MISS:    1143883
cpu0_L2C LOAD      ACCESS:   11657891  HIT:   11367667  MISS:     290224
cpu0_L2C RFO       ACCESS:     367617  HIT:     156771  MISS:     210846
cpu0_L2C PREFETCH  ACCESS:   14893022  HIT:   14251207  MISS:     641815
cpu0_L2C WRITEBACK ACCESS:     808605  HIT:     807676  MISS:        929
cpu0_L2C TRANSLATION ACCESS:        531  HIT:        462  MISS:         69
cpu0_L2C PREFETCH  REQUESTED:    1042308  ISSUED:    1029138  USEFUL:      27956  USELESS:      26026
cpu0_L2C AVERAGE MISS LATENCY: 249.251 cycles
LLC TOTAL     ACCESS:    1703941  HIT:     999257  MISS:     704684
LLC LOAD      ACCESS:     290222  HIT:      84024  MISS:     206198
LLC RFO       ACCESS:     210845  HIT:     119460  MISS:      91385
LLC PREFETCH  ACCESS:     641948  HIT:     244237  MISS:     397711
LLC WRITEBACK ACCESS:     560857  HIT:     551479  MISS:       9378
LLC TRANSLATION ACCESS:         69  HIT:         57  MISS:         12
LLC PREFETCH  REQUESTED:          0  ISSUED:          0  USEFUL:          0  USELESS:          0
LLC AVERAGE MISS LATENCY: 361.067 cycles

DRAM Statistics
 CHANNEL 0
 RQ ROW_BUFFER_HIT:      99969  ROW_BUFFER_MISS:     595242
 DBUS AVG_CONGESTED_CYCLE:    3.88608
 WQ ROW_BUFFER_HIT:      37095  ROW_BUFFER_MISS:     297004  FULL:          0


CPU 0 Branch Prediction Accuracy: 88.5577% MPKI: 20.1191 Average ROB Occupancy at Mispredict: 18.8621
Branch type MPKI
BRANCH_DIRECT_JUMP: 0.000451
BRANCH_INDIRECT: 0.007247
BRANCH_CONDITIONAL: 20.1095
BRANCH_DIRECT_CALL: 0.0009
BRANCH_INDIRECT_CALL: 0.000191
BRANCH_RETURN: 0.00082

