
*** ChampSim Multicore Out-of-Order Simulator ***

Warmup Instructions: 1000000
Simulation Instructions: 1000000000
Number of CPUs: 1
Off-chip DRAM Size: 4 GiB Channels: 1 Width: 64-bit Data Rate: 3200 MT/s

VirtualMemory physical capacity: 8588881920 num_ppages: 2096895
VirtualMemory page size: 4096 log2_page_size: 12

CPU 0 runs tracer/pin/traces/spec2k17/657.xz_s-3167B.champsimtrace.xz
Basic BTB sets: 1024 ways: 8 indirect buffer size: 4096 RAS size: 64
cpu0_L1D next line prefetcher
cpu0_L2C IP-based stride prefetcher
WARNING: The extended signature CACHE::prefetch_line(ip, base_addr, pf_addr, fill_this_level, prefetch_metadata) is deprecated.
WARNING: Use CACHE::prefetch_line(pf_addr, fill_this_level, prefetch_metadata) instead.

Warmup complete CPU 0 instructions: 1000002 cycles: 250248 (Simulation time: 0 hr 0 min 4 sec) 

Heartbeat CPU 0 instructions: 10000002 cycles: 8581687 heartbeat IPC: 1.16527 cumulative IPC: 1.08025 (Simulation time: 0 hr 0 min 50 sec) 
Heartbeat CPU 0 instructions: 20000000 cycles: 15417364 heartbeat IPC: 1.46291 cumulative IPC: 1.25271 (Simulation time: 0 hr 1 min 35 sec) 
Heartbeat CPU 0 instructions: 30000000 cycles: 23619666 heartbeat IPC: 1.21917 cumulative IPC: 1.24094 (Simulation time: 0 hr 2 min 23 sec) 
Heartbeat CPU 0 instructions: 40000001 cycles: 32933389 heartbeat IPC: 1.07368 cumulative IPC: 1.19328 (Simulation time: 0 hr 3 min 12 sec) 
Heartbeat CPU 0 instructions: 50000002 cycles: 42001528 heartbeat IPC: 1.10276 cumulative IPC: 1.17362 (Simulation time: 0 hr 4 min 0 sec) 
Heartbeat CPU 0 instructions: 60000003 cycles: 49950824 heartbeat IPC: 1.25797 cumulative IPC: 1.18711 (Simulation time: 0 hr 4 min 48 sec) 
Heartbeat CPU 0 instructions: 70000000 cycles: 57185683 heartbeat IPC: 1.3822 cumulative IPC: 1.2119 (Simulation time: 0 hr 5 min 34 sec) 
Heartbeat CPU 0 instructions: 80000002 cycles: 64746263 heartbeat IPC: 1.32265 cumulative IPC: 1.22488 (Simulation time: 0 hr 6 min 19 sec) 
Heartbeat CPU 0 instructions: 90000001 cycles: 71412516 heartbeat IPC: 1.50009 cumulative IPC: 1.25066 (Simulation time: 0 hr 7 min 2 sec) 
Heartbeat CPU 0 instructions: 100000001 cycles: 78936653 heartbeat IPC: 1.32906 cumulative IPC: 1.25816 (Simulation time: 0 hr 7 min 46 sec) 
Heartbeat CPU 0 instructions: 110000001 cycles: 86328059 heartbeat IPC: 1.35292 cumulative IPC: 1.2663 (Simulation time: 0 hr 8 min 31 sec) 
Heartbeat CPU 0 instructions: 120000002 cycles: 92900259 heartbeat IPC: 1.52156 cumulative IPC: 1.2844 (Simulation time: 0 hr 9 min 12 sec) 
Heartbeat CPU 0 instructions: 130000003 cycles: 98452039 heartbeat IPC: 1.80122 cumulative IPC: 1.31362 (Simulation time: 0 hr 9 min 51 sec) 
Heartbeat CPU 0 instructions: 140000003 cycles: 105219047 heartbeat IPC: 1.47776 cumulative IPC: 1.3242 (Simulation time: 0 hr 10 min 32 sec) 
Heartbeat CPU 0 instructions: 150000000 cycles: 110896943 heartbeat IPC: 1.76122 cumulative IPC: 1.34663 (Simulation time: 0 hr 11 min 12 sec) 
Heartbeat CPU 0 instructions: 160000002 cycles: 116284470 heartbeat IPC: 1.85614 cumulative IPC: 1.37029 (Simulation time: 0 hr 11 min 50 sec) 
Heartbeat CPU 0 instructions: 170000001 cycles: 123742928 heartbeat IPC: 1.34076 cumulative IPC: 1.3685 (Simulation time: 0 hr 12 min 32 sec) 
Heartbeat CPU 0 instructions: 180000003 cycles: 133233501 heartbeat IPC: 1.05368 cumulative IPC: 1.34603 (Simulation time: 0 hr 13 min 16 sec) 
Heartbeat CPU 0 instructions: 190000004 cycles: 144550427 heartbeat IPC: 0.883632 cumulative IPC: 1.30977 (Simulation time: 0 hr 14 min 5 sec) 
Heartbeat CPU 0 instructions: 200000000 cycles: 154779642 heartbeat IPC: 0.977592 cumulative IPC: 1.28778 (Simulation time: 0 hr 14 min 50 sec) 
Heartbeat CPU 0 instructions: 210000000 cycles: 164747364 heartbeat IPC: 1.00324 cumulative IPC: 1.27054 (Simulation time: 0 hr 15 min 36 sec) 
Heartbeat CPU 0 instructions: 220000001 cycles: 173425431 heartbeat IPC: 1.15233 cumulative IPC: 1.26462 (Simulation time: 0 hr 16 min 18 sec) 
Heartbeat CPU 0 instructions: 230000001 cycles: 181180583 heartbeat IPC: 1.28947 cumulative IPC: 1.26568 (Simulation time: 0 hr 17 min 0 sec) 
Heartbeat CPU 0 instructions: 240000002 cycles: 188779697 heartbeat IPC: 1.31594 cumulative IPC: 1.26771 (Simulation time: 0 hr 17 min 40 sec) 
Heartbeat CPU 0 instructions: 250000000 cycles: 195707858 heartbeat IPC: 1.44338 cumulative IPC: 1.27393 (Simulation time: 0 hr 18 min 19 sec) 
Heartbeat CPU 0 instructions: 260000000 cycles: 201591959 heartbeat IPC: 1.69949 cumulative IPC: 1.28637 (Simulation time: 0 hr 18 min 57 sec) 
Heartbeat CPU 0 instructions: 270000000 cycles: 207164680 heartbeat IPC: 1.79446 cumulative IPC: 1.30005 (Simulation time: 0 hr 19 min 35 sec) 
Heartbeat CPU 0 instructions: 280000000 cycles: 216775713 heartbeat IPC: 1.04047 cumulative IPC: 1.28853 (Simulation time: 0 hr 20 min 18 sec) 
Heartbeat CPU 0 instructions: 290000001 cycles: 224532831 heartbeat IPC: 1.28914 cumulative IPC: 1.28855 (Simulation time: 0 hr 20 min 57 sec) 
Heartbeat CPU 0 instructions: 300000002 cycles: 231038961 heartbeat IPC: 1.53701 cumulative IPC: 1.29556 (Simulation time: 0 hr 21 min 35 sec) 
Heartbeat CPU 0 instructions: 310000001 cycles: 237535329 heartbeat IPC: 1.53932 cumulative IPC: 1.30223 (Simulation time: 0 hr 22 min 13 sec) 
Heartbeat CPU 0 instructions: 320000004 cycles: 245309424 heartbeat IPC: 1.28632 cumulative IPC: 1.30173 (Simulation time: 0 hr 22 min 52 sec) 
Heartbeat CPU 0 instructions: 330000004 cycles: 251515788 heartbeat IPC: 1.61125 cumulative IPC: 1.30937 (Simulation time: 0 hr 23 min 30 sec) 
Heartbeat CPU 0 instructions: 340000001 cycles: 259433202 heartbeat IPC: 1.26304 cumulative IPC: 1.30796 (Simulation time: 0 hr 24 min 8 sec) 
Heartbeat CPU 0 instructions: 350000002 cycles: 268070176 heartbeat IPC: 1.15781 cumulative IPC: 1.30311 (Simulation time: 0 hr 24 min 49 sec) 
Heartbeat CPU 0 instructions: 360000002 cycles: 276817266 heartbeat IPC: 1.14324 cumulative IPC: 1.29806 (Simulation time: 0 hr 25 min 27 sec) 
Heartbeat CPU 0 instructions: 370000004 cycles: 284374640 heartbeat IPC: 1.32321 cumulative IPC: 1.29873 (Simulation time: 0 hr 26 min 7 sec) 
Heartbeat CPU 0 instructions: 380000003 cycles: 291394928 heartbeat IPC: 1.42444 cumulative IPC: 1.30176 (Simulation time: 0 hr 26 min 45 sec) 
Heartbeat CPU 0 instructions: 390000000 cycles: 300357058 heartbeat IPC: 1.11581 cumulative IPC: 1.29621 (Simulation time: 0 hr 27 min 28 sec) 
Heartbeat CPU 0 instructions: 400000001 cycles: 308771949 heartbeat IPC: 1.18837 cumulative IPC: 1.29326 (Simulation time: 0 hr 28 min 10 sec) 
Heartbeat CPU 0 instructions: 410000004 cycles: 317636371 heartbeat IPC: 1.12811 cumulative IPC: 1.28865 (Simulation time: 0 hr 28 min 51 sec) 
Heartbeat CPU 0 instructions: 420000002 cycles: 326784796 heartbeat IPC: 1.09308 cumulative IPC: 1.28317 (Simulation time: 0 hr 29 min 32 sec) 
Heartbeat CPU 0 instructions: 430000000 cycles: 334786704 heartbeat IPC: 1.2497 cumulative IPC: 1.28237 (Simulation time: 0 hr 30 min 11 sec) 
Heartbeat CPU 0 instructions: 440000004 cycles: 342765182 heartbeat IPC: 1.25337 cumulative IPC: 1.2817 (Simulation time: 0 hr 30 min 52 sec) 
Heartbeat CPU 0 instructions: 450000003 cycles: 350682043 heartbeat IPC: 1.26313 cumulative IPC: 1.28128 (Simulation time: 0 hr 31 min 32 sec) 
Heartbeat CPU 0 instructions: 460000000 cycles: 358452766 heartbeat IPC: 1.28688 cumulative IPC: 1.2814 (Simulation time: 0 hr 32 min 10 sec) 
Heartbeat CPU 0 instructions: 470000000 cycles: 366392388 heartbeat IPC: 1.25951 cumulative IPC: 1.28092 (Simulation time: 0 hr 32 min 51 sec) 
Heartbeat CPU 0 instructions: 480000003 cycles: 373353115 heartbeat IPC: 1.43663 cumulative IPC: 1.28383 (Simulation time: 0 hr 33 min 31 sec) 
Heartbeat CPU 0 instructions: 490000003 cycles: 380024167 heartbeat IPC: 1.49901 cumulative IPC: 1.28761 (Simulation time: 0 hr 34 min 10 sec) 
Heartbeat CPU 0 instructions: 500000002 cycles: 387452557 heartbeat IPC: 1.34619 cumulative IPC: 1.28873 (Simulation time: 0 hr 34 min 50 sec) 
Heartbeat CPU 0 instructions: 510000000 cycles: 408390715 heartbeat IPC: 0.477597 cumulative IPC: 1.24712 (Simulation time: 0 hr 36 min 31 sec) 
Heartbeat CPU 0 instructions: 520000002 cycles: 416263593 heartbeat IPC: 1.27018 cumulative IPC: 1.24756 (Simulation time: 0 hr 37 min 12 sec) 
Heartbeat CPU 0 instructions: 530000000 cycles: 423460746 heartbeat IPC: 1.38944 cumulative IPC: 1.24997 (Simulation time: 0 hr 37 min 49 sec) 
Heartbeat CPU 0 instructions: 540000002 cycles: 430509666 heartbeat IPC: 1.41866 cumulative IPC: 1.25273 (Simulation time: 0 hr 38 min 28 sec) 
Heartbeat CPU 0 instructions: 550000001 cycles: 440818225 heartbeat IPC: 0.970068 cumulative IPC: 1.24612 (Simulation time: 0 hr 39 min 10 sec) 
Heartbeat CPU 0 instructions: 560000003 cycles: 448325731 heartbeat IPC: 1.332 cumulative IPC: 1.24756 (Simulation time: 0 hr 39 min 51 sec) 
Heartbeat CPU 0 instructions: 570000004 cycles: 455877795 heartbeat IPC: 1.32414 cumulative IPC: 1.24883 (Simulation time: 0 hr 40 min 31 sec) 
Heartbeat CPU 0 instructions: 580000004 cycles: 463425481 heartbeat IPC: 1.32491 cumulative IPC: 1.25007 (Simulation time: 0 hr 41 min 9 sec) 
Heartbeat CPU 0 instructions: 590000000 cycles: 471157030 heartbeat IPC: 1.2934 cumulative IPC: 1.25078 (Simulation time: 0 hr 41 min 48 sec) 
Heartbeat CPU 0 instructions: 600000000 cycles: 479295445 heartbeat IPC: 1.22874 cumulative IPC: 1.2504 (Simulation time: 0 hr 42 min 30 sec) 
Heartbeat CPU 0 instructions: 610000004 cycles: 487405435 heartbeat IPC: 1.23305 cumulative IPC: 1.25012 (Simulation time: 0 hr 43 min 9 sec) 
Heartbeat CPU 0 instructions: 620000001 cycles: 494918727 heartbeat IPC: 1.33097 cumulative IPC: 1.25134 (Simulation time: 0 hr 43 min 48 sec) 
Heartbeat CPU 0 instructions: 630000001 cycles: 502909183 heartbeat IPC: 1.25149 cumulative IPC: 1.25135 (Simulation time: 0 hr 44 min 28 sec) 
Heartbeat CPU 0 instructions: 640000003 cycles: 510815626 heartbeat IPC: 1.26479 cumulative IPC: 1.25155 (Simulation time: 0 hr 45 min 6 sec) 
Heartbeat CPU 0 instructions: 650000001 cycles: 517529360 heartbeat IPC: 1.48948 cumulative IPC: 1.25464 (Simulation time: 0 hr 45 min 42 sec) 
Heartbeat CPU 0 instructions: 660000003 cycles: 525337662 heartbeat IPC: 1.28069 cumulative IPC: 1.25503 (Simulation time: 0 hr 46 min 17 sec) 
Heartbeat CPU 0 instructions: 670000004 cycles: 533092334 heartbeat IPC: 1.28955 cumulative IPC: 1.25553 (Simulation time: 0 hr 46 min 53 sec) 
Heartbeat CPU 0 instructions: 680000002 cycles: 540414621 heartbeat IPC: 1.36569 cumulative IPC: 1.25702 (Simulation time: 0 hr 47 min 29 sec) 
Heartbeat CPU 0 instructions: 690000004 cycles: 548996014 heartbeat IPC: 1.16531 cumulative IPC: 1.25559 (Simulation time: 0 hr 48 min 8 sec) 
Heartbeat CPU 0 instructions: 700000000 cycles: 556442930 heartbeat IPC: 1.34284 cumulative IPC: 1.25676 (Simulation time: 0 hr 48 min 44 sec) 
Heartbeat CPU 0 instructions: 710000000 cycles: 564324570 heartbeat IPC: 1.26877 cumulative IPC: 1.25693 (Simulation time: 0 hr 49 min 22 sec) 
Heartbeat CPU 0 instructions: 720000002 cycles: 572209673 heartbeat IPC: 1.26821 cumulative IPC: 1.25708 (Simulation time: 0 hr 49 min 58 sec) 
Heartbeat CPU 0 instructions: 730000004 cycles: 579462199 heartbeat IPC: 1.37883 cumulative IPC: 1.25861 (Simulation time: 0 hr 50 min 34 sec) 
Heartbeat CPU 0 instructions: 740000002 cycles: 587160129 heartbeat IPC: 1.29905 cumulative IPC: 1.25914 (Simulation time: 0 hr 51 min 8 sec) 
Heartbeat CPU 0 instructions: 750000003 cycles: 593201392 heartbeat IPC: 1.65528 cumulative IPC: 1.26317 (Simulation time: 0 hr 51 min 41 sec) 
Heartbeat CPU 0 instructions: 760000000 cycles: 598619722 heartbeat IPC: 1.84559 cumulative IPC: 1.26845 (Simulation time: 0 hr 52 min 12 sec) 
Heartbeat CPU 0 instructions: 770000003 cycles: 604154964 heartbeat IPC: 1.80661 cumulative IPC: 1.27338 (Simulation time: 0 hr 52 min 43 sec) 
Heartbeat CPU 0 instructions: 780000004 cycles: 609489553 heartbeat IPC: 1.87456 cumulative IPC: 1.27864 (Simulation time: 0 hr 53 min 15 sec) 
Heartbeat CPU 0 instructions: 790000000 cycles: 615040080 heartbeat IPC: 1.80163 cumulative IPC: 1.28337 (Simulation time: 0 hr 53 min 48 sec) 
Heartbeat CPU 0 instructions: 800000002 cycles: 620550237 heartbeat IPC: 1.81483 cumulative IPC: 1.28809 (Simulation time: 0 hr 54 min 20 sec) 
Heartbeat CPU 0 instructions: 810000002 cycles: 626097154 heartbeat IPC: 1.8028 cumulative IPC: 1.29265 (Simulation time: 0 hr 54 min 51 sec) 
Heartbeat CPU 0 instructions: 820000000 cycles: 631523352 heartbeat IPC: 1.84291 cumulative IPC: 1.29738 (Simulation time: 0 hr 55 min 23 sec) 
Heartbeat CPU 0 instructions: 830000001 cycles: 637225300 heartbeat IPC: 1.75379 cumulative IPC: 1.30146 (Simulation time: 0 hr 55 min 54 sec) 
Heartbeat CPU 0 instructions: 840000002 cycles: 642527802 heartbeat IPC: 1.8859 cumulative IPC: 1.30629 (Simulation time: 0 hr 56 min 26 sec) 
Heartbeat CPU 0 instructions: 850000003 cycles: 648276990 heartbeat IPC: 1.73938 cumulative IPC: 1.31013 (Simulation time: 0 hr 56 min 57 sec) 
Heartbeat CPU 0 instructions: 860000004 cycles: 653767036 heartbeat IPC: 1.82148 cumulative IPC: 1.31443 (Simulation time: 0 hr 57 min 28 sec) 
Heartbeat CPU 0 instructions: 870000000 cycles: 659387467 heartbeat IPC: 1.77922 cumulative IPC: 1.31839 (Simulation time: 0 hr 58 min 1 sec) 
Heartbeat CPU 0 instructions: 880000000 cycles: 664805746 heartbeat IPC: 1.8456 cumulative IPC: 1.32269 (Simulation time: 0 hr 58 min 32 sec) 
Heartbeat CPU 0 instructions: 890000004 cycles: 670212671 heartbeat IPC: 1.84948 cumulative IPC: 1.32694 (Simulation time: 0 hr 59 min 3 sec) 
Heartbeat CPU 0 instructions: 900000000 cycles: 675733588 heartbeat IPC: 1.81129 cumulative IPC: 1.3309 (Simulation time: 0 hr 59 min 34 sec) 
Heartbeat CPU 0 instructions: 910000004 cycles: 681207657 heartbeat IPC: 1.8268 cumulative IPC: 1.33489 (Simulation time: 1 hr 0 min 6 sec) 
Heartbeat CPU 0 instructions: 920000001 cycles: 686765068 heartbeat IPC: 1.7994 cumulative IPC: 1.33865 (Simulation time: 1 hr 0 min 37 sec) 
Heartbeat CPU 0 instructions: 930000001 cycles: 694210130 heartbeat IPC: 1.34317 cumulative IPC: 1.33869 (Simulation time: 1 hr 1 min 11 sec) 
Heartbeat CPU 0 instructions: 940000001 cycles: 702413775 heartbeat IPC: 1.21897 cumulative IPC: 1.3373 (Simulation time: 1 hr 1 min 47 sec) 
Heartbeat CPU 0 instructions: 950000000 cycles: 711622593 heartbeat IPC: 1.08592 cumulative IPC: 1.33404 (Simulation time: 1 hr 2 min 24 sec) 
Heartbeat CPU 0 instructions: 960000001 cycles: 717654140 heartbeat IPC: 1.65795 cumulative IPC: 1.33676 (Simulation time: 1 hr 2 min 55 sec) 
Heartbeat CPU 0 instructions: 970000002 cycles: 724812908 heartbeat IPC: 1.39689 cumulative IPC: 1.33736 (Simulation time: 1 hr 3 min 27 sec) 
Heartbeat CPU 0 instructions: 980000001 cycles: 734975943 heartbeat IPC: 0.983958 cumulative IPC: 1.33247 (Simulation time: 1 hr 4 min 3 sec) 
Heartbeat CPU 0 instructions: 990000000 cycles: 745559239 heartbeat IPC: 0.944885 cumulative IPC: 1.32697 (Simulation time: 1 hr 4 min 40 sec) 
Heartbeat CPU 0 instructions: 1000000000 cycles: 753954862 heartbeat IPC: 1.1911 cumulative IPC: 1.32545 (Simulation time: 1 hr 5 min 15 sec) 
Finished CPU 0 instructions: 1000000000 cycles: 754398150 cumulative IPC: 1.32556 (Simulation time: 1 hr 5 min 18 sec) 

ChampSim completed all CPUs

Region of Interest Statistics

CPU 0 cumulative IPC: 1.32556 instructions: 1000000000 cycles: 754398150
cpu0_DTLB TOTAL     ACCESS:  177261532  HIT:  172373618  MISS:    4887914
cpu0_DTLB LOAD      ACCESS:  138161910  HIT:  135883234  MISS:    2278676
cpu0_DTLB RFO       ACCESS:   39099622  HIT:   36490384  MISS:    2609238
cpu0_DTLB PREFETCH  ACCESS:          0  HIT:          0  MISS:          0
cpu0_DTLB WRITEBACK ACCESS:          0  HIT:          0  MISS:          0
cpu0_DTLB TRANSLATION ACCESS:          0  HIT:          0  MISS:          0
cpu0_DTLB PREFETCH  REQUESTED:          0  ISSUED:          0  USEFUL:          0  USELESS:          0
cpu0_DTLB AVERAGE MISS LATENCY: 10.6704 cycles
cpu0_ITLB TOTAL     ACCESS:   82683673  HIT:   82683661  MISS:         12
cpu0_ITLB LOAD      ACCESS:   82683673  HIT:   82683661  MISS:         12
cpu0_ITLB RFO       ACCESS:          0  HIT:          0  MISS:          0
cpu0_ITLB PREFETCH  ACCESS:          0  HIT:          0  MISS:          0
cpu0_ITLB WRITEBACK ACCESS:          0  HIT:          0  MISS:          0
cpu0_ITLB TRANSLATION ACCESS:          0  HIT:          0  MISS:          0
cpu0_ITLB PREFETCH  REQUESTED:          0  ISSUED:          0  USEFUL:          0  USELESS:          0
cpu0_ITLB AVERAGE MISS LATENCY: 188.5 cycles
cpu0_L1I TOTAL     ACCESS:   19127551  HIT:   19126720  MISS:        831
cpu0_L1I LOAD      ACCESS:   19127551  HIT:   19126720  MISS:        831
cpu0_L1I RFO       ACCESS:          0  HIT:          0  MISS:          0
cpu0_L1I PREFETCH  ACCESS:          0  HIT:          0  MISS:          0
cpu0_L1I WRITEBACK ACCESS:          0  HIT:          0  MISS:          0
cpu0_L1I TRANSLATION ACCESS:          0  HIT:          0  MISS:          0
cpu0_L1I PREFETCH  REQUESTED:          0  ISSUED:          0  USEFUL:          0  USELESS:          0
cpu0_L1I AVERAGE MISS LATENCY: 131.342 cycles
cpu0_STLB TOTAL     ACCESS:    4887926  HIT:    4458513  MISS:     429413
cpu0_STLB LOAD      ACCESS:    2278688  HIT:    1932505  MISS:     346183
cpu0_STLB RFO       ACCESS:    2609238  HIT:    2526008  MISS:      83230
cpu0_STLB PREFETCH  ACCESS:          0  HIT:          0  MISS:          0
cpu0_STLB WRITEBACK ACCESS:          0  HIT:          0  MISS:          0
cpu0_STLB TRANSLATION ACCESS:          0  HIT:          0  MISS:          0
cpu0_STLB PREFETCH  REQUESTED:          0  ISSUED:          0  USEFUL:          0  USELESS:          0
cpu0_STLB AVERAGE MISS LATENCY: 18.903 cycles
cpu0_L1D TOTAL     ACCESS:  333352790  HIT:  321928014  MISS:   11424776
cpu0_L1D LOAD      ACCESS:  135830664  HIT:  131340514  MISS:    4490150
cpu0_L1D RFO       ACCESS:   63714059  HIT:   61718055  MISS:    1996004
cpu0_L1D PREFETCH  ACCESS:  133379938  HIT:  128487278  MISS:    4892660
cpu0_L1D WRITEBACK ACCESS:          0  HIT:          0  MISS:          0
cpu0_L1D TRANSLATION ACCESS:     428129  HIT:     382167  MISS:      45962
cpu0_L1D PREFETCH  REQUESTED:  136006717  ISSUED:  134376597  USEFUL:    2611835  USELESS:    2341999
cpu0_L1D AVERAGE MISS LATENCY: 77.3297 cycles
cpu0_L2C TOTAL     ACCESS:   17527539  HIT:   13724384  MISS:    3803155
cpu0_L2C LOAD      ACCESS:    4436097  HIT:    2923065  MISS:    1513032
cpu0_L2C RFO       ACCESS:    1987850  HIT:    1459539  MISS:     528311
cpu0_L2C PREFETCH  ACCESS:    5536417  HIT:    3782097  MISS:    1754320
cpu0_L2C WRITEBACK ACCESS:    5521213  HIT:    5515013  MISS:       6200
cpu0_L2C TRANSLATION ACCESS:      45962  HIT:      44670  MISS:       1292
cpu0_L2C PREFETCH  REQUESTED:     771905  ISSUED:     596396  USEFUL:      27109  USELESS:      29108
cpu0_L2C AVERAGE MISS LATENCY: 200.005 cycles
LLC TOTAL     ACCESS:    5482702  HIT:    3731853  MISS:    1750849
LLC LOAD      ACCESS:    1512995  HIT:     853740  MISS:     659255
LLC RFO       ACCESS:     528299  HIT:     150736  MISS:     377563
LLC PREFETCH  ACCESS:    1755780  HIT:    1063189  MISS:     692591
LLC WRITEBACK ACCESS:    1684336  HIT:    1662944  MISS:      21392
LLC TRANSLATION ACCESS:       1292  HIT:       1244  MISS:         48
LLC PREFETCH  REQUESTED:          0  ISSUED:          0  USEFUL:          0  USELESS:          0
LLC AVERAGE MISS LATENCY: 376.703 cycles

DRAM Statistics
 CHANNEL 0
 RQ ROW_BUFFER_HIT:      86932  ROW_BUFFER_MISS:    1642340
 DBUS AVG_CONGESTED_CYCLE:    3.80395
 WQ ROW_BUFFER_HIT:     126507  ROW_BUFFER_MISS:     791433  FULL:          0


CPU 0 Branch Prediction Accuracy: 91.8231% MPKI: 12.3118 Average ROB Occupancy at Mispredict: 41.7615
Branch type MPKI
BRANCH_DIRECT_JUMP: 2.7e-05
BRANCH_INDIRECT: 0.754334
BRANCH_CONDITIONAL: 11.5553
BRANCH_DIRECT_CALL: 1.6e-05
BRANCH_INDIRECT_CALL: 0.00218
BRANCH_RETURN: 2.6e-05

