
*** ChampSim Multicore Out-of-Order Simulator ***

Warmup Instructions: 1000000
Simulation Instructions: 1000000000
Number of CPUs: 1
Off-chip DRAM Size: 4 GiB Channels: 1 Width: 64-bit Data Rate: 3200 MT/s

VirtualMemory physical capacity: 8588881920 num_ppages: 2096895
VirtualMemory page size: 4096 log2_page_size: 12

CPU 0 runs tracer/pin/traces/spec2k17/621.wrf_s-575B.champsimtrace.xz
Basic BTB sets: 1024 ways: 8 indirect buffer size: 4096 RAS size: 64
cpu0_L1D next line prefetcher
cpu0_L2C IP-based stride prefetcher
WARNING: The extended signature CACHE::prefetch_line(ip, base_addr, pf_addr, fill_this_level, prefetch_metadata) is deprecated.
WARNING: Use CACHE::prefetch_line(pf_addr, fill_this_level, prefetch_metadata) instead.

Warmup complete CPU 0 instructions: 1000001 cycles: 250098 (Simulation time: 0 hr 0 min 2 sec) 

Heartbeat CPU 0 instructions: 10000001 cycles: 8433671 heartbeat IPC: 1.18572 cumulative IPC: 1.09976 (Simulation time: 0 hr 0 min 40 sec) 
Heartbeat CPU 0 instructions: 20000000 cycles: 17454356 heartbeat IPC: 1.10856 cumulative IPC: 1.10438 (Simulation time: 0 hr 1 min 24 sec) 
Heartbeat CPU 0 instructions: 30000002 cycles: 26516597 heartbeat IPC: 1.10348 cumulative IPC: 1.10407 (Simulation time: 0 hr 2 min 9 sec) 
Heartbeat CPU 0 instructions: 40000004 cycles: 35563865 heartbeat IPC: 1.10531 cumulative IPC: 1.10439 (Simulation time: 0 hr 2 min 54 sec) 
Heartbeat CPU 0 instructions: 50000003 cycles: 44606106 heartbeat IPC: 1.10592 cumulative IPC: 1.1047 (Simulation time: 0 hr 3 min 44 sec) 
Heartbeat CPU 0 instructions: 60000002 cycles: 53637221 heartbeat IPC: 1.10728 cumulative IPC: 1.10514 (Simulation time: 0 hr 4 min 38 sec) 
Heartbeat CPU 0 instructions: 70000000 cycles: 62628306 heartbeat IPC: 1.11221 cumulative IPC: 1.10616 (Simulation time: 0 hr 5 min 29 sec) 
Heartbeat CPU 0 instructions: 80000002 cycles: 71564717 heartbeat IPC: 1.11902 cumulative IPC: 1.10777 (Simulation time: 0 hr 6 min 23 sec) 
Heartbeat CPU 0 instructions: 90000000 cycles: 80563050 heartbeat IPC: 1.11132 cumulative IPC: 1.10816 (Simulation time: 0 hr 7 min 18 sec) 
Heartbeat CPU 0 instructions: 100000000 cycles: 89519189 heartbeat IPC: 1.11655 cumulative IPC: 1.10901 (Simulation time: 0 hr 8 min 12 sec) 
Heartbeat CPU 0 instructions: 110000002 cycles: 98433172 heartbeat IPC: 1.12183 cumulative IPC: 1.11017 (Simulation time: 0 hr 9 min 7 sec) 
Heartbeat CPU 0 instructions: 120000001 cycles: 107228317 heartbeat IPC: 1.13699 cumulative IPC: 1.11238 (Simulation time: 0 hr 10 min 3 sec) 
Heartbeat CPU 0 instructions: 130000000 cycles: 116096861 heartbeat IPC: 1.12758 cumulative IPC: 1.11354 (Simulation time: 0 hr 10 min 59 sec) 
Heartbeat CPU 0 instructions: 140000001 cycles: 124937774 heartbeat IPC: 1.13111 cumulative IPC: 1.11479 (Simulation time: 0 hr 11 min 57 sec) 
Heartbeat CPU 0 instructions: 150000000 cycles: 133655702 heartbeat IPC: 1.14706 cumulative IPC: 1.11689 (Simulation time: 0 hr 12 min 51 sec) 
Heartbeat CPU 0 instructions: 160000002 cycles: 142399454 heartbeat IPC: 1.14367 cumulative IPC: 1.11854 (Simulation time: 0 hr 13 min 46 sec) 
Heartbeat CPU 0 instructions: 170000003 cycles: 151122234 heartbeat IPC: 1.14642 cumulative IPC: 1.12015 (Simulation time: 0 hr 14 min 44 sec) 
Heartbeat CPU 0 instructions: 180000000 cycles: 159874424 heartbeat IPC: 1.14257 cumulative IPC: 1.12138 (Simulation time: 0 hr 15 min 46 sec) 
Heartbeat CPU 0 instructions: 190000004 cycles: 168681388 heartbeat IPC: 1.13547 cumulative IPC: 1.12212 (Simulation time: 0 hr 16 min 46 sec) 
Heartbeat CPU 0 instructions: 200000000 cycles: 177446149 heartbeat IPC: 1.14093 cumulative IPC: 1.12305 (Simulation time: 0 hr 17 min 49 sec) 
Heartbeat CPU 0 instructions: 210000000 cycles: 186098165 heartbeat IPC: 1.1558 cumulative IPC: 1.12457 (Simulation time: 0 hr 18 min 53 sec) 
Heartbeat CPU 0 instructions: 220000001 cycles: 194722586 heartbeat IPC: 1.1595 cumulative IPC: 1.12612 (Simulation time: 0 hr 19 min 57 sec) 
Heartbeat CPU 0 instructions: 230000002 cycles: 203405889 heartbeat IPC: 1.15164 cumulative IPC: 1.12721 (Simulation time: 0 hr 21 min 4 sec) 
Heartbeat CPU 0 instructions: 240000003 cycles: 212153391 heartbeat IPC: 1.14318 cumulative IPC: 1.12787 (Simulation time: 0 hr 22 min 10 sec) 
Heartbeat CPU 0 instructions: 250000003 cycles: 220915335 heartbeat IPC: 1.1413 cumulative IPC: 1.12841 (Simulation time: 0 hr 23 min 18 sec) 
Heartbeat CPU 0 instructions: 260000000 cycles: 229681502 heartbeat IPC: 1.14075 cumulative IPC: 1.12888 (Simulation time: 0 hr 24 min 26 sec) 
Heartbeat CPU 0 instructions: 270000001 cycles: 238430488 heartbeat IPC: 1.14299 cumulative IPC: 1.1294 (Simulation time: 0 hr 25 min 34 sec) 
Heartbeat CPU 0 instructions: 280000002 cycles: 247178996 heartbeat IPC: 1.14305 cumulative IPC: 1.12988 (Simulation time: 0 hr 26 min 42 sec) 
Heartbeat CPU 0 instructions: 290000000 cycles: 255975176 heartbeat IPC: 1.13686 cumulative IPC: 1.13012 (Simulation time: 0 hr 27 min 51 sec) 
Heartbeat CPU 0 instructions: 300000001 cycles: 264759604 heartbeat IPC: 1.13838 cumulative IPC: 1.13039 (Simulation time: 0 hr 28 min 59 sec) 
Heartbeat CPU 0 instructions: 310000003 cycles: 273477195 heartbeat IPC: 1.14711 cumulative IPC: 1.13093 (Simulation time: 0 hr 30 min 7 sec) 
Heartbeat CPU 0 instructions: 320000002 cycles: 282331651 heartbeat IPC: 1.12937 cumulative IPC: 1.13088 (Simulation time: 0 hr 31 min 15 sec) 
Heartbeat CPU 0 instructions: 330000002 cycles: 291116551 heartbeat IPC: 1.13832 cumulative IPC: 1.1311 (Simulation time: 0 hr 32 min 23 sec) 
Heartbeat CPU 0 instructions: 340000001 cycles: 298709101 heartbeat IPC: 1.31708 cumulative IPC: 1.13583 (Simulation time: 0 hr 33 min 34 sec) 
Heartbeat CPU 0 instructions: 350000001 cycles: 305867569 heartbeat IPC: 1.39695 cumulative IPC: 1.14195 (Simulation time: 0 hr 34 min 39 sec) 
Heartbeat CPU 0 instructions: 360000001 cycles: 313210971 heartbeat IPC: 1.36177 cumulative IPC: 1.14711 (Simulation time: 0 hr 35 min 46 sec) 
Heartbeat CPU 0 instructions: 370000004 cycles: 320560887 heartbeat IPC: 1.36056 cumulative IPC: 1.15201 (Simulation time: 0 hr 36 min 55 sec) 
Heartbeat CPU 0 instructions: 380000000 cycles: 327938881 heartbeat IPC: 1.35538 cumulative IPC: 1.15659 (Simulation time: 0 hr 38 min 3 sec) 
Heartbeat CPU 0 instructions: 390000000 cycles: 358892455 heartbeat IPC: 0.323064 cumulative IPC: 1.08465 (Simulation time: 0 hr 41 min 30 sec) 
Heartbeat CPU 0 instructions: 400000004 cycles: 365174350 heartbeat IPC: 1.59188 cumulative IPC: 1.09338 (Simulation time: 0 hr 42 min 37 sec) 
Heartbeat CPU 0 instructions: 410000000 cycles: 371430794 heartbeat IPC: 1.59835 cumulative IPC: 1.10189 (Simulation time: 0 hr 43 min 45 sec) 
Heartbeat CPU 0 instructions: 420000002 cycles: 377454525 heartbeat IPC: 1.6601 cumulative IPC: 1.1108 (Simulation time: 0 hr 44 min 51 sec) 
Heartbeat CPU 0 instructions: 430000000 cycles: 383487091 heartbeat IPC: 1.65767 cumulative IPC: 1.11941 (Simulation time: 0 hr 45 min 57 sec) 
Heartbeat CPU 0 instructions: 440000000 cycles: 389509033 heartbeat IPC: 1.66059 cumulative IPC: 1.12778 (Simulation time: 0 hr 47 min 4 sec) 
Heartbeat CPU 0 instructions: 450000001 cycles: 395541275 heartbeat IPC: 1.65776 cumulative IPC: 1.13587 (Simulation time: 0 hr 48 min 9 sec) 
Heartbeat CPU 0 instructions: 460000001 cycles: 401461943 heartbeat IPC: 1.689 cumulative IPC: 1.14403 (Simulation time: 0 hr 49 min 16 sec) 
Heartbeat CPU 0 instructions: 470000004 cycles: 407213983 heartbeat IPC: 1.73851 cumulative IPC: 1.15244 (Simulation time: 0 hr 50 min 21 sec) 
Heartbeat CPU 0 instructions: 480000001 cycles: 413260407 heartbeat IPC: 1.65387 cumulative IPC: 1.15978 (Simulation time: 0 hr 51 min 28 sec) 
Heartbeat CPU 0 instructions: 490000002 cycles: 421739030 heartbeat IPC: 1.17944 cumulative IPC: 1.16017 (Simulation time: 0 hr 52 min 47 sec) 
Heartbeat CPU 0 instructions: 500000001 cycles: 429328898 heartbeat IPC: 1.31755 cumulative IPC: 1.16296 (Simulation time: 0 hr 54 min 2 sec) 
Heartbeat CPU 0 instructions: 510000002 cycles: 436827545 heartbeat IPC: 1.33357 cumulative IPC: 1.16589 (Simulation time: 0 hr 55 min 19 sec) 
Heartbeat CPU 0 instructions: 520000001 cycles: 444223344 heartbeat IPC: 1.35212 cumulative IPC: 1.16899 (Simulation time: 0 hr 56 min 34 sec) 
Heartbeat CPU 0 instructions: 530000004 cycles: 451818172 heartbeat IPC: 1.31669 cumulative IPC: 1.17147 (Simulation time: 0 hr 57 min 50 sec) 
Heartbeat CPU 0 instructions: 540000002 cycles: 459341500 heartbeat IPC: 1.3292 cumulative IPC: 1.17406 (Simulation time: 0 hr 59 min 4 sec) 
Heartbeat CPU 0 instructions: 550000003 cycles: 466903955 heartbeat IPC: 1.32232 cumulative IPC: 1.17646 (Simulation time: 1 hr 0 min 22 sec) 
Heartbeat CPU 0 instructions: 560000000 cycles: 474217576 heartbeat IPC: 1.36731 cumulative IPC: 1.17941 (Simulation time: 1 hr 1 min 38 sec) 
Heartbeat CPU 0 instructions: 570000004 cycles: 481738498 heartbeat IPC: 1.32962 cumulative IPC: 1.18175 (Simulation time: 1 hr 2 min 54 sec) 
Heartbeat CPU 0 instructions: 580000002 cycles: 489294540 heartbeat IPC: 1.32344 cumulative IPC: 1.18394 (Simulation time: 1 hr 4 min 10 sec) 
Heartbeat CPU 0 instructions: 590000000 cycles: 496857194 heartbeat IPC: 1.32229 cumulative IPC: 1.18605 (Simulation time: 1 hr 5 min 26 sec) 
Heartbeat CPU 0 instructions: 600000000 cycles: 504243736 heartbeat IPC: 1.35381 cumulative IPC: 1.18851 (Simulation time: 1 hr 6 min 40 sec) 
Heartbeat CPU 0 instructions: 610000003 cycles: 511666564 heartbeat IPC: 1.3472 cumulative IPC: 1.19081 (Simulation time: 1 hr 7 min 56 sec) 
Heartbeat CPU 0 instructions: 620000004 cycles: 544585158 heartbeat IPC: 0.30378 cumulative IPC: 1.13717 (Simulation time: 1 hr 11 min 36 sec) 
Heartbeat CPU 0 instructions: 630000004 cycles: 576186093 heartbeat IPC: 0.316446 cumulative IPC: 1.09214 (Simulation time: 1 hr 14 min 55 sec) 
Heartbeat CPU 0 instructions: 640000001 cycles: 601705681 heartbeat IPC: 0.391856 cumulative IPC: 1.06242 (Simulation time: 1 hr 17 min 49 sec) 
Heartbeat CPU 0 instructions: 650000000 cycles: 635086291 heartbeat IPC: 0.299575 cumulative IPC: 1.02231 (Simulation time: 1 hr 21 min 17 sec) 
Heartbeat CPU 0 instructions: 660000001 cycles: 649519242 heartbeat IPC: 0.692859 cumulative IPC: 1.01499 (Simulation time: 1 hr 23 min 15 sec) 
Heartbeat CPU 0 instructions: 670000002 cycles: 665344441 heartbeat IPC: 0.631904 cumulative IPC: 1.00587 (Simulation time: 1 hr 25 min 16 sec) 
Heartbeat CPU 0 instructions: 680000004 cycles: 714863471 heartbeat IPC: 0.201943 cumulative IPC: 0.950164 (Simulation time: 1 hr 29 min 53 sec) 
Heartbeat CPU 0 instructions: 690000001 cycles: 722300841 heartbeat IPC: 1.34456 cumulative IPC: 0.954227 (Simulation time: 1 hr 31 min 5 sec) 
Heartbeat CPU 0 instructions: 700000000 cycles: 729980776 heartbeat IPC: 1.30209 cumulative IPC: 0.957888 (Simulation time: 1 hr 32 min 18 sec) 
Heartbeat CPU 0 instructions: 710000001 cycles: 737059628 heartbeat IPC: 1.41266 cumulative IPC: 0.962257 (Simulation time: 1 hr 33 min 27 sec) 
Heartbeat CPU 0 instructions: 720000004 cycles: 744321937 heartbeat IPC: 1.37697 cumulative IPC: 0.966305 (Simulation time: 1 hr 34 min 35 sec) 
Heartbeat CPU 0 instructions: 730000004 cycles: 751784029 heartbeat IPC: 1.34011 cumulative IPC: 0.970016 (Simulation time: 1 hr 35 min 44 sec) 
Heartbeat CPU 0 instructions: 740000004 cycles: 767235532 heartbeat IPC: 0.647186 cumulative IPC: 0.963512 (Simulation time: 1 hr 37 min 31 sec) 
Heartbeat CPU 0 instructions: 750000004 cycles: 798728520 heartbeat IPC: 0.317531 cumulative IPC: 0.938034 (Simulation time: 1 hr 40 min 42 sec) 
Heartbeat CPU 0 instructions: 760000000 cycles: 814119520 heartbeat IPC: 0.64973 cumulative IPC: 0.932582 (Simulation time: 1 hr 42 min 28 sec) 
Heartbeat CPU 0 instructions: 770000001 cycles: 836956872 heartbeat IPC: 0.437879 cumulative IPC: 0.919079 (Simulation time: 1 hr 44 min 42 sec) 
Heartbeat CPU 0 instructions: 780000003 cycles: 851240402 heartbeat IPC: 0.700107 cumulative IPC: 0.915404 (Simulation time: 1 hr 46 min 18 sec) 
Heartbeat CPU 0 instructions: 790000004 cycles: 864860844 heartbeat IPC: 0.734191 cumulative IPC: 0.912549 (Simulation time: 1 hr 47 min 47 sec) 
Heartbeat CPU 0 instructions: 800000003 cycles: 880758744 heartbeat IPC: 0.629014 cumulative IPC: 0.90743 (Simulation time: 1 hr 49 min 22 sec) 
Heartbeat CPU 0 instructions: 810000000 cycles: 899660123 heartbeat IPC: 0.529062 cumulative IPC: 0.899478 (Simulation time: 1 hr 51 min 12 sec) 
Heartbeat CPU 0 instructions: 820000003 cycles: 963859242 heartbeat IPC: 0.155765 cumulative IPC: 0.84993 (Simulation time: 1 hr 55 min 15 sec) 
Heartbeat CPU 0 instructions: 830000004 cycles: 998348268 heartbeat IPC: 0.289947 cumulative IPC: 0.83058 (Simulation time: 1 hr 57 min 52 sec) 
Heartbeat CPU 0 instructions: 840000000 cycles: 1025115562 heartbeat IPC: 0.37359 cumulative IPC: 0.818644 (Simulation time: 2 hr 0 min 10 sec) 
Heartbeat CPU 0 instructions: 850000004 cycles: 1085767587 heartbeat IPC: 0.164875 cumulative IPC: 0.782115 (Simulation time: 2 hr 4 min 32 sec) 
Heartbeat CPU 0 instructions: 860000000 cycles: 1115832584 heartbeat IPC: 0.332613 cumulative IPC: 0.770001 (Simulation time: 2 hr 7 min 22 sec) 
Heartbeat CPU 0 instructions: 870000004 cycles: 1123368751 heartbeat IPC: 1.32694 cumulative IPC: 0.773738 (Simulation time: 2 hr 8 min 29 sec) 
Heartbeat CPU 0 instructions: 880000002 cycles: 1141678117 heartbeat IPC: 0.546168 cumulative IPC: 0.770088 (Simulation time: 2 hr 10 min 25 sec) 
Heartbeat CPU 0 instructions: 890000000 cycles: 1149188529 heartbeat IPC: 1.33148 cumulative IPC: 0.773758 (Simulation time: 2 hr 11 min 34 sec) 
Heartbeat CPU 0 instructions: 900000003 cycles: 1164106594 heartbeat IPC: 0.670328 cumulative IPC: 0.772432 (Simulation time: 2 hr 13 min 20 sec) 
Heartbeat CPU 0 instructions: 910000002 cycles: 1171375063 heartbeat IPC: 1.37581 cumulative IPC: 0.776177 (Simulation time: 2 hr 14 min 28 sec) 
Heartbeat CPU 0 instructions: 920000004 cycles: 1186261022 heartbeat IPC: 0.671774 cumulative IPC: 0.774866 (Simulation time: 2 hr 16 min 12 sec) 
Heartbeat CPU 0 instructions: 930000002 cycles: 1193519370 heartbeat IPC: 1.37772 cumulative IPC: 0.778533 (Simulation time: 2 hr 17 min 20 sec) 
Heartbeat CPU 0 instructions: 940000004 cycles: 1208344708 heartbeat IPC: 0.674521 cumulative IPC: 0.777257 (Simulation time: 2 hr 19 min 9 sec) 
Heartbeat CPU 0 instructions: 950000004 cycles: 1216144754 heartbeat IPC: 1.28204 cumulative IPC: 0.780495 (Simulation time: 2 hr 20 min 21 sec) 
Heartbeat CPU 0 instructions: 960000001 cycles: 1232398570 heartbeat IPC: 0.61524 cumulative IPC: 0.778315 (Simulation time: 2 hr 22 min 15 sec) 
Heartbeat CPU 0 instructions: 970000002 cycles: 1241461884 heartbeat IPC: 1.10335 cumulative IPC: 0.780689 (Simulation time: 2 hr 23 min 25 sec) 
Heartbeat CPU 0 instructions: 980000001 cycles: 1250569780 heartbeat IPC: 1.09795 cumulative IPC: 0.783 (Simulation time: 2 hr 24 min 34 sec) 
Heartbeat CPU 0 instructions: 990000001 cycles: 1259739224 heartbeat IPC: 1.09058 cumulative IPC: 0.785239 (Simulation time: 2 hr 25 min 41 sec) 
Heartbeat CPU 0 instructions: 1000000003 cycles: 1282515000 heartbeat IPC: 0.439063 cumulative IPC: 0.77909 (Simulation time: 2 hr 27 min 54 sec) 
Finished CPU 0 instructions: 1000000002 cycles: 1284453607 cumulative IPC: 0.778541 (Simulation time: 2 hr 28 min 7 sec) 

ChampSim completed all CPUs

Region of Interest Statistics

CPU 0 cumulative IPC: 0.778541 instructions: 1000000002 cycles: 1284453607
cpu0_DTLB TOTAL     ACCESS:  204953408  HIT:  204033011  MISS:     920397
cpu0_DTLB LOAD      ACCESS:  169618031  HIT:  168971182  MISS:     646849
cpu0_DTLB RFO       ACCESS:   35335377  HIT:   35061829  MISS:     273548
cpu0_DTLB PREFETCH  ACCESS:          0  HIT:          0  MISS:          0
cpu0_DTLB WRITEBACK ACCESS:          0  HIT:          0  MISS:          0
cpu0_DTLB TRANSLATION ACCESS:          0  HIT:          0  MISS:          0
cpu0_DTLB PREFETCH  REQUESTED:          0  ISSUED:          0  USEFUL:          0  USELESS:          0
cpu0_DTLB AVERAGE MISS LATENCY: 30.5937 cycles
cpu0_ITLB TOTAL     ACCESS:   42024004  HIT:   42023499  MISS:        505
cpu0_ITLB LOAD      ACCESS:   42024004  HIT:   42023499  MISS:        505
cpu0_ITLB RFO       ACCESS:          0  HIT:          0  MISS:          0
cpu0_ITLB PREFETCH  ACCESS:          0  HIT:          0  MISS:          0
cpu0_ITLB WRITEBACK ACCESS:          0  HIT:          0  MISS:          0
cpu0_ITLB TRANSLATION ACCESS:          0  HIT:          0  MISS:          0
cpu0_ITLB PREFETCH  REQUESTED:          0  ISSUED:          0  USEFUL:          0  USELESS:          0
cpu0_ITLB AVERAGE MISS LATENCY: 290.299 cycles
cpu0_L1I TOTAL     ACCESS:   41823680  HIT:   41181000  MISS:     642680
cpu0_L1I LOAD      ACCESS:   41823680  HIT:   41181000  MISS:     642680
cpu0_L1I RFO       ACCESS:          0  HIT:          0  MISS:          0
cpu0_L1I PREFETCH  ACCESS:          0  HIT:          0  MISS:          0
cpu0_L1I WRITEBACK ACCESS:          0  HIT:          0  MISS:          0
cpu0_L1I TRANSLATION ACCESS:          0  HIT:          0  MISS:          0
cpu0_L1I PREFETCH  REQUESTED:          0  ISSUED:          0  USEFUL:          0  USELESS:          0
cpu0_L1I AVERAGE MISS LATENCY: 31.5137 cycles
cpu0_STLB TOTAL     ACCESS:     920902  HIT:     863235  MISS:      57667
cpu0_STLB LOAD      ACCESS:     647354  HIT:     605376  MISS:      41978
cpu0_STLB RFO       ACCESS:     273548  HIT:     257859  MISS:      15689
cpu0_STLB PREFETCH  ACCESS:          0  HIT:          0  MISS:          0
cpu0_STLB WRITEBACK ACCESS:          0  HIT:          0  MISS:          0
cpu0_STLB TRANSLATION ACCESS:          0  HIT:          0  MISS:          0
cpu0_STLB PREFETCH  REQUESTED:          0  ISSUED:          0  USEFUL:          0  USELESS:          0
cpu0_STLB AVERAGE MISS LATENCY: 344.308 cycles
cpu0_L1D TOTAL     ACCESS:  372095562  HIT:  358961548  MISS:   13134014
cpu0_L1D LOAD      ACCESS:  169364546  HIT:  164116809  MISS:    5247737
cpu0_L1D RFO       ACCESS:   59399709  HIT:   55749266  MISS:    3650443
cpu0_L1D PREFETCH  ACCESS:  143279299  HIT:  139054057  MISS:    4225242
cpu0_L1D WRITEBACK ACCESS:          0  HIT:          0  MISS:          0
cpu0_L1D TRANSLATION ACCESS:      52008  HIT:      41416  MISS:      10592
cpu0_L1D PREFETCH  REQUESTED:  174062449  ISSUED:  158238256  USEFUL:    6363220  USELESS:     653468
cpu0_L1D AVERAGE MISS LATENCY: 200.353 cycles
cpu0_L2C TOTAL     ACCESS:   21617244  HIT:   14786616  MISS:    6830628
cpu0_L2C LOAD      ACCESS:    3099160  HIT:    2254643  MISS:     844517
cpu0_L2C RFO       ACCESS:    3641564  HIT:    2064368  MISS:    1577196
cpu0_L2C PREFETCH  ACCESS:    9389454  HIT:    4987841  MISS:    4401613
cpu0_L2C WRITEBACK ACCESS:    5476474  HIT:    5470815  MISS:       5659
cpu0_L2C TRANSLATION ACCESS:      10592  HIT:       8949  MISS:       1643
cpu0_L2C PREFETCH  REQUESTED:    2917554  ISSUED:    2550507  USEFUL:      84701  USELESS:      46208
cpu0_L2C AVERAGE MISS LATENCY: 678.488 cycles
LLC TOTAL     ACCESS:    9878114  HIT:    4762607  MISS:    5115507
LLC LOAD      ACCESS:     844502  HIT:     327785  MISS:     516717
LLC RFO       ACCESS:    1576984  HIT:     418031  MISS:    1158953
LLC PREFETCH  ACCESS:    4463346  HIT:    1086182  MISS:    3377164
LLC WRITEBACK ACCESS:    2991639  HIT:    2929368  MISS:      62271
LLC TRANSLATION ACCESS:       1643  HIT:       1241  MISS:        402
LLC PREFETCH  REQUESTED:          0  ISSUED:          0  USEFUL:          0  USELESS:          0
LLC AVERAGE MISS LATENCY: 882.328 cycles

DRAM Statistics
 CHANNEL 0
 RQ ROW_BUFFER_HIT:     402504  ROW_BUFFER_MISS:    4646253
 DBUS AVG_CONGESTED_CYCLE:    3.97445
 WQ ROW_BUFFER_HIT:      52987  ROW_BUFFER_MISS:    2151364  FULL:          0


CPU 0 Branch Prediction Accuracy: 97.7475% MPKI: 2.39832 Average ROB Occupancy at Mispredict: 94.4776
Branch type MPKI
BRANCH_DIRECT_JUMP: 0.0004
BRANCH_INDIRECT: 1.7e-05
BRANCH_CONDITIONAL: 2.39456
BRANCH_DIRECT_CALL: 0.002517
BRANCH_INDIRECT_CALL: 0
BRANCH_RETURN: 0.000827

