
*** ChampSim Multicore Out-of-Order Simulator ***

Warmup Instructions: 1000000
Simulation Instructions: 1000000000
Number of CPUs: 1
Off-chip DRAM Size: 4 GiB Channels: 1 Width: 64-bit Data Rate: 3200 MT/s

VirtualMemory physical capacity: 8588881920 num_ppages: 2096895
VirtualMemory page size: 4096 log2_page_size: 12

CPU 0 runs tracer/pin/traces/spec2k6/464.h264ref-30B.champsimtrace.xz
Basic BTB sets: 1024 ways: 8 indirect buffer size: 4096 RAS size: 64
cpu0_L1D next line prefetcher
cpu0_L2C IP-based stride prefetcher
WARNING: The extended signature CACHE::prefetch_line(ip, base_addr, pf_addr, fill_this_level, prefetch_metadata) is deprecated.
WARNING: Use CACHE::prefetch_line(pf_addr, fill_this_level, prefetch_metadata) instead.

Warmup complete CPU 0 instructions: 1000002 cycles: 528322 (Simulation time: 0 hr 0 min 5 sec) 

Heartbeat CPU 0 instructions: 10000004 cycles: 6088510 heartbeat IPC: 1.64244 cumulative IPC: 1.61865 (Simulation time: 0 hr 1 min 0 sec) 
Heartbeat CPU 0 instructions: 20000001 cycles: 12203557 heartbeat IPC: 1.63531 cumulative IPC: 1.62738 (Simulation time: 0 hr 2 min 1 sec) 
Heartbeat CPU 0 instructions: 30000002 cycles: 18658268 heartbeat IPC: 1.54926 cumulative IPC: 1.59956 (Simulation time: 0 hr 2 min 52 sec) 
Heartbeat CPU 0 instructions: 40000003 cycles: 26524175 heartbeat IPC: 1.27131 cumulative IPC: 1.50024 (Simulation time: 0 hr 3 min 44 sec) 
Heartbeat CPU 0 instructions: 50000000 cycles: 31858637 heartbeat IPC: 1.8746 cumulative IPC: 1.56398 (Simulation time: 0 hr 4 min 32 sec) 
Heartbeat CPU 0 instructions: 60000003 cycles: 36944473 heartbeat IPC: 1.96625 cumulative IPC: 1.62016 (Simulation time: 0 hr 5 min 21 sec) 
Heartbeat CPU 0 instructions: 70000001 cycles: 42015466 heartbeat IPC: 1.972 cumulative IPC: 1.66317 (Simulation time: 0 hr 6 min 9 sec) 
Heartbeat CPU 0 instructions: 80000001 cycles: 47550554 heartbeat IPC: 1.80666 cumulative IPC: 1.68006 (Simulation time: 0 hr 6 min 59 sec) 
Heartbeat CPU 0 instructions: 90000003 cycles: 55165554 heartbeat IPC: 1.3132 cumulative IPC: 1.62893 (Simulation time: 0 hr 7 min 53 sec) 
Heartbeat CPU 0 instructions: 100000002 cycles: 60835622 heartbeat IPC: 1.76365 cumulative IPC: 1.64159 (Simulation time: 0 hr 8 min 43 sec) 
Heartbeat CPU 0 instructions: 110000003 cycles: 65985602 heartbeat IPC: 1.94176 cumulative IPC: 1.66521 (Simulation time: 0 hr 9 min 31 sec) 
Heartbeat CPU 0 instructions: 120000001 cycles: 71157060 heartbeat IPC: 1.93369 cumulative IPC: 1.68487 (Simulation time: 0 hr 10 min 19 sec) 
Heartbeat CPU 0 instructions: 130000002 cycles: 76299527 heartbeat IPC: 1.94459 cumulative IPC: 1.70249 (Simulation time: 0 hr 11 min 8 sec) 
Heartbeat CPU 0 instructions: 140000003 cycles: 83542404 heartbeat IPC: 1.38067 cumulative IPC: 1.67441 (Simulation time: 0 hr 12 min 1 sec) 
Heartbeat CPU 0 instructions: 150000004 cycles: 90158753 heartbeat IPC: 1.51141 cumulative IPC: 1.66238 (Simulation time: 0 hr 13 min 5 sec) 
Heartbeat CPU 0 instructions: 160000000 cycles: 96167580 heartbeat IPC: 1.66422 cumulative IPC: 1.6625 (Simulation time: 0 hr 14 min 10 sec) 
Heartbeat CPU 0 instructions: 170000003 cycles: 101977359 heartbeat IPC: 1.72124 cumulative IPC: 1.66586 (Simulation time: 0 hr 15 min 9 sec) 
Heartbeat CPU 0 instructions: 180000003 cycles: 109702597 heartbeat IPC: 1.29446 cumulative IPC: 1.63958 (Simulation time: 0 hr 16 min 2 sec) 
Heartbeat CPU 0 instructions: 190000002 cycles: 116854146 heartbeat IPC: 1.3983 cumulative IPC: 1.62475 (Simulation time: 0 hr 17 min 3 sec) 
Heartbeat CPU 0 instructions: 200000004 cycles: 122866349 heartbeat IPC: 1.66328 cumulative IPC: 1.62664 (Simulation time: 0 hr 18 min 9 sec) 
Heartbeat CPU 0 instructions: 210000001 cycles: 128494801 heartbeat IPC: 1.77669 cumulative IPC: 1.63324 (Simulation time: 0 hr 19 min 11 sec) 
Heartbeat CPU 0 instructions: 220000003 cycles: 135353304 heartbeat IPC: 1.45804 cumulative IPC: 1.62433 (Simulation time: 0 hr 20 min 6 sec) 
Heartbeat CPU 0 instructions: 230000004 cycles: 142673795 heartbeat IPC: 1.36603 cumulative IPC: 1.61103 (Simulation time: 0 hr 21 min 9 sec) 
Heartbeat CPU 0 instructions: 240000004 cycles: 148695652 heartbeat IPC: 1.66062 cumulative IPC: 1.61304 (Simulation time: 0 hr 22 min 17 sec) 
Heartbeat CPU 0 instructions: 250000002 cycles: 154470126 heartbeat IPC: 1.73176 cumulative IPC: 1.61749 (Simulation time: 0 hr 23 min 23 sec) 
Heartbeat CPU 0 instructions: 260000004 cycles: 160686072 heartbeat IPC: 1.60877 cumulative IPC: 1.61716 (Simulation time: 0 hr 24 min 23 sec) 
Heartbeat CPU 0 instructions: 270000001 cycles: 167997346 heartbeat IPC: 1.36775 cumulative IPC: 1.60627 (Simulation time: 0 hr 25 min 29 sec) 
Heartbeat CPU 0 instructions: 280000002 cycles: 174019511 heartbeat IPC: 1.66053 cumulative IPC: 1.60815 (Simulation time: 0 hr 26 min 40 sec) 
Heartbeat CPU 0 instructions: 290000003 cycles: 179947278 heartbeat IPC: 1.68698 cumulative IPC: 1.61076 (Simulation time: 0 hr 27 min 52 sec) 
Heartbeat CPU 0 instructions: 300000004 cycles: 186254865 heartbeat IPC: 1.58539 cumulative IPC: 1.60989 (Simulation time: 0 hr 28 min 53 sec) 
Heartbeat CPU 0 instructions: 310000001 cycles: 194164852 heartbeat IPC: 1.26422 cumulative IPC: 1.59577 (Simulation time: 0 hr 29 min 56 sec) 
Heartbeat CPU 0 instructions: 320000001 cycles: 200153656 heartbeat IPC: 1.66978 cumulative IPC: 1.59799 (Simulation time: 0 hr 31 min 7 sec) 
Heartbeat CPU 0 instructions: 330000001 cycles: 206273305 heartbeat IPC: 1.63408 cumulative IPC: 1.59907 (Simulation time: 0 hr 32 min 19 sec) 
Heartbeat CPU 0 instructions: 340000001 cycles: 212896378 heartbeat IPC: 1.50987 cumulative IPC: 1.59629 (Simulation time: 0 hr 33 min 18 sec) 
Heartbeat CPU 0 instructions: 350000000 cycles: 221010835 heartbeat IPC: 1.23237 cumulative IPC: 1.58289 (Simulation time: 0 hr 34 min 19 sec) 
Heartbeat CPU 0 instructions: 360000000 cycles: 227272482 heartbeat IPC: 1.59702 cumulative IPC: 1.58328 (Simulation time: 0 hr 35 min 29 sec) 
Heartbeat CPU 0 instructions: 370000004 cycles: 233412146 heartbeat IPC: 1.62875 cumulative IPC: 1.58448 (Simulation time: 0 hr 36 min 41 sec) 
Heartbeat CPU 0 instructions: 380000000 cycles: 239496769 heartbeat IPC: 1.64349 cumulative IPC: 1.58598 (Simulation time: 0 hr 37 min 43 sec) 
Heartbeat CPU 0 instructions: 390000004 cycles: 247358679 heartbeat IPC: 1.27196 cumulative IPC: 1.57598 (Simulation time: 0 hr 38 min 45 sec) 
Heartbeat CPU 0 instructions: 400000003 cycles: 254074569 heartbeat IPC: 1.48901 cumulative IPC: 1.57368 (Simulation time: 0 hr 39 min 53 sec) 
Heartbeat CPU 0 instructions: 410000003 cycles: 260187843 heartbeat IPC: 1.63578 cumulative IPC: 1.57514 (Simulation time: 0 hr 41 min 5 sec) 
Heartbeat CPU 0 instructions: 420000003 cycles: 266098311 heartbeat IPC: 1.69191 cumulative IPC: 1.57774 (Simulation time: 0 hr 42 min 10 sec) 
Heartbeat CPU 0 instructions: 430000001 cycles: 273733767 heartbeat IPC: 1.30968 cumulative IPC: 1.57025 (Simulation time: 0 hr 43 min 12 sec) 
Heartbeat CPU 0 instructions: 440000003 cycles: 281059812 heartbeat IPC: 1.36499 cumulative IPC: 1.56489 (Simulation time: 0 hr 44 min 17 sec) 
Heartbeat CPU 0 instructions: 450000003 cycles: 287147224 heartbeat IPC: 1.64273 cumulative IPC: 1.56654 (Simulation time: 0 hr 45 min 31 sec) 
Heartbeat CPU 0 instructions: 460000004 cycles: 293023624 heartbeat IPC: 1.70172 cumulative IPC: 1.56926 (Simulation time: 0 hr 46 min 39 sec) 
Heartbeat CPU 0 instructions: 470000000 cycles: 299728369 heartbeat IPC: 1.49148 cumulative IPC: 1.56751 (Simulation time: 0 hr 47 min 40 sec) 
Heartbeat CPU 0 instructions: 480000000 cycles: 307000306 heartbeat IPC: 1.37515 cumulative IPC: 1.56295 (Simulation time: 0 hr 48 min 45 sec) 
Heartbeat CPU 0 instructions: 490000003 cycles: 312984079 heartbeat IPC: 1.67119 cumulative IPC: 1.56502 (Simulation time: 0 hr 49 min 52 sec) 
Heartbeat CPU 0 instructions: 500000004 cycles: 318887310 heartbeat IPC: 1.69399 cumulative IPC: 1.56741 (Simulation time: 0 hr 51 min 1 sec) 
Heartbeat CPU 0 instructions: 510000003 cycles: 325392320 heartbeat IPC: 1.53728 cumulative IPC: 1.56681 (Simulation time: 0 hr 52 min 0 sec) 
Heartbeat CPU 0 instructions: 520000004 cycles: 332506271 heartbeat IPC: 1.40569 cumulative IPC: 1.56336 (Simulation time: 0 hr 52 min 59 sec) 
Heartbeat CPU 0 instructions: 530000003 cycles: 337546000 heartbeat IPC: 1.98423 cumulative IPC: 1.56965 (Simulation time: 0 hr 53 min 52 sec) 
Heartbeat CPU 0 instructions: 540000004 cycles: 342619990 heartbeat IPC: 1.97084 cumulative IPC: 1.5756 (Simulation time: 0 hr 54 min 46 sec) 
Heartbeat CPU 0 instructions: 550000001 cycles: 347724991 heartbeat IPC: 1.95886 cumulative IPC: 1.58124 (Simulation time: 0 hr 55 min 41 sec) 
Heartbeat CPU 0 instructions: 560000004 cycles: 353707790 heartbeat IPC: 1.67146 cumulative IPC: 1.58276 (Simulation time: 0 hr 56 min 38 sec) 
Heartbeat CPU 0 instructions: 570000002 cycles: 361057563 heartbeat IPC: 1.36059 cumulative IPC: 1.57824 (Simulation time: 0 hr 57 min 37 sec) 
Heartbeat CPU 0 instructions: 580000000 cycles: 366171681 heartbeat IPC: 1.95537 cumulative IPC: 1.58351 (Simulation time: 0 hr 58 min 32 sec) 
Heartbeat CPU 0 instructions: 590000001 cycles: 371327955 heartbeat IPC: 1.93939 cumulative IPC: 1.58846 (Simulation time: 0 hr 59 min 27 sec) 
Heartbeat CPU 0 instructions: 600000003 cycles: 376502306 heartbeat IPC: 1.93261 cumulative IPC: 1.5932 (Simulation time: 1 hr 0 min 20 sec) 
Heartbeat CPU 0 instructions: 610000001 cycles: 382485277 heartbeat IPC: 1.67141 cumulative IPC: 1.59442 (Simulation time: 1 hr 1 min 15 sec) 
Heartbeat CPU 0 instructions: 620000004 cycles: 390024497 heartbeat IPC: 1.3264 cumulative IPC: 1.58923 (Simulation time: 1 hr 2 min 13 sec) 
Heartbeat CPU 0 instructions: 630000003 cycles: 396113034 heartbeat IPC: 1.64243 cumulative IPC: 1.59005 (Simulation time: 1 hr 3 min 21 sec) 
Heartbeat CPU 0 instructions: 640000001 cycles: 402159830 heartbeat IPC: 1.65377 cumulative IPC: 1.59101 (Simulation time: 1 hr 4 min 31 sec) 
Heartbeat CPU 0 instructions: 650000000 cycles: 408043451 heartbeat IPC: 1.69963 cumulative IPC: 1.59258 (Simulation time: 1 hr 5 min 30 sec) 
Heartbeat CPU 0 instructions: 660000000 cycles: 414776211 heartbeat IPC: 1.48528 cumulative IPC: 1.59083 (Simulation time: 1 hr 6 min 27 sec) 
Heartbeat CPU 0 instructions: 670000001 cycles: 421716019 heartbeat IPC: 1.44096 cumulative IPC: 1.58837 (Simulation time: 1 hr 7 min 32 sec) 
Heartbeat CPU 0 instructions: 680000004 cycles: 427710577 heartbeat IPC: 1.66818 cumulative IPC: 1.58949 (Simulation time: 1 hr 8 min 38 sec) 
Heartbeat CPU 0 instructions: 690000003 cycles: 433426555 heartbeat IPC: 1.74948 cumulative IPC: 1.5916 (Simulation time: 1 hr 9 min 39 sec) 
Heartbeat CPU 0 instructions: 700000003 cycles: 440838668 heartbeat IPC: 1.34914 cumulative IPC: 1.58752 (Simulation time: 1 hr 10 min 33 sec) 
Heartbeat CPU 0 instructions: 710000002 cycles: 448428018 heartbeat IPC: 1.31764 cumulative IPC: 1.58294 (Simulation time: 1 hr 11 min 30 sec) 
Heartbeat CPU 0 instructions: 720000003 cycles: 454397298 heartbeat IPC: 1.67524 cumulative IPC: 1.58416 (Simulation time: 1 hr 12 min 35 sec) 
Heartbeat CPU 0 instructions: 730000000 cycles: 460427616 heartbeat IPC: 1.65829 cumulative IPC: 1.58513 (Simulation time: 1 hr 13 min 39 sec) 
Heartbeat CPU 0 instructions: 740000001 cycles: 466252542 heartbeat IPC: 1.71676 cumulative IPC: 1.58678 (Simulation time: 1 hr 14 min 33 sec) 
Heartbeat CPU 0 instructions: 750000002 cycles: 473842123 heartbeat IPC: 1.3176 cumulative IPC: 1.58246 (Simulation time: 1 hr 15 min 31 sec) 
Heartbeat CPU 0 instructions: 760000002 cycles: 479779890 heartbeat IPC: 1.68413 cumulative IPC: 1.58372 (Simulation time: 1 hr 16 min 33 sec) 
Heartbeat CPU 0 instructions: 770000001 cycles: 485853002 heartbeat IPC: 1.6466 cumulative IPC: 1.58451 (Simulation time: 1 hr 17 min 37 sec) 
Heartbeat CPU 0 instructions: 780000000 cycles: 491951063 heartbeat IPC: 1.63987 cumulative IPC: 1.58519 (Simulation time: 1 hr 18 min 34 sec) 
Heartbeat CPU 0 instructions: 790000000 cycles: 499613096 heartbeat IPC: 1.30514 cumulative IPC: 1.58089 (Simulation time: 1 hr 19 min 31 sec) 
Heartbeat CPU 0 instructions: 800000002 cycles: 505780937 heartbeat IPC: 1.62131 cumulative IPC: 1.58139 (Simulation time: 1 hr 20 min 36 sec) 
Heartbeat CPU 0 instructions: 810000004 cycles: 511846002 heartbeat IPC: 1.64879 cumulative IPC: 1.58219 (Simulation time: 1 hr 21 min 41 sec) 
Heartbeat CPU 0 instructions: 820000000 cycles: 517944131 heartbeat IPC: 1.63985 cumulative IPC: 1.58287 (Simulation time: 1 hr 22 min 38 sec) 
Heartbeat CPU 0 instructions: 830000004 cycles: 525503162 heartbeat IPC: 1.32292 cumulative IPC: 1.57912 (Simulation time: 1 hr 23 min 36 sec) 
Heartbeat CPU 0 instructions: 840000002 cycles: 532118803 heartbeat IPC: 1.51157 cumulative IPC: 1.57828 (Simulation time: 1 hr 24 min 41 sec) 
Heartbeat CPU 0 instructions: 850000002 cycles: 538165468 heartbeat IPC: 1.6538 cumulative IPC: 1.57913 (Simulation time: 1 hr 25 min 47 sec) 
Heartbeat CPU 0 instructions: 860000004 cycles: 543779644 heartbeat IPC: 1.78121 cumulative IPC: 1.58122 (Simulation time: 1 hr 26 min 47 sec) 
Heartbeat CPU 0 instructions: 870000004 cycles: 550950993 heartbeat IPC: 1.39444 cumulative IPC: 1.57879 (Simulation time: 1 hr 27 min 47 sec) 
Heartbeat CPU 0 instructions: 880000003 cycles: 558011541 heartbeat IPC: 1.41632 cumulative IPC: 1.57673 (Simulation time: 1 hr 28 min 51 sec) 
Heartbeat CPU 0 instructions: 890000000 cycles: 564027116 heartbeat IPC: 1.66235 cumulative IPC: 1.57764 (Simulation time: 1 hr 30 min 0 sec) 
Heartbeat CPU 0 instructions: 900000001 cycles: 569695865 heartbeat IPC: 1.76406 cumulative IPC: 1.5795 (Simulation time: 1 hr 31 min 6 sec) 
Heartbeat CPU 0 instructions: 910000002 cycles: 576215252 heartbeat IPC: 1.53389 cumulative IPC: 1.57898 (Simulation time: 1 hr 32 min 8 sec) 
Heartbeat CPU 0 instructions: 920000002 cycles: 583616603 heartbeat IPC: 1.3511 cumulative IPC: 1.57609 (Simulation time: 1 hr 33 min 15 sec) 
Heartbeat CPU 0 instructions: 930000002 cycles: 589539370 heartbeat IPC: 1.6884 cumulative IPC: 1.57722 (Simulation time: 1 hr 34 min 25 sec) 
Heartbeat CPU 0 instructions: 940000004 cycles: 595449112 heartbeat IPC: 1.69212 cumulative IPC: 1.57836 (Simulation time: 1 hr 35 min 33 sec) 
Heartbeat CPU 0 instructions: 950000000 cycles: 602184704 heartbeat IPC: 1.48465 cumulative IPC: 1.57731 (Simulation time: 1 hr 36 min 29 sec) 
Heartbeat CPU 0 instructions: 960000002 cycles: 609681217 heartbeat IPC: 1.33395 cumulative IPC: 1.57432 (Simulation time: 1 hr 37 min 31 sec) 
Heartbeat CPU 0 instructions: 970000003 cycles: 615629005 heartbeat IPC: 1.6813 cumulative IPC: 1.57535 (Simulation time: 1 hr 38 min 38 sec) 
Heartbeat CPU 0 instructions: 980000001 cycles: 621618905 heartbeat IPC: 1.66948 cumulative IPC: 1.57626 (Simulation time: 1 hr 39 min 46 sec) 
Heartbeat CPU 0 instructions: 990000002 cycles: 627580585 heartbeat IPC: 1.67738 cumulative IPC: 1.57722 (Simulation time: 1 hr 40 min 38 sec) 
Heartbeat CPU 0 instructions: 1000000004 cycles: 635483634 heartbeat IPC: 1.26533 cumulative IPC: 1.57334 (Simulation time: 1 hr 41 min 34 sec) 
Finished CPU 0 instructions: 1000000003 cycles: 635483903 cumulative IPC: 1.5736 (Simulation time: 1 hr 41 min 40 sec) 

ChampSim completed all CPUs

Region of Interest Statistics

CPU 0 cumulative IPC: 1.5736 instructions: 1000000003 cycles: 635483903
cpu0_DTLB TOTAL     ACCESS:  250237674  HIT:  249918953  MISS:     318721
cpu0_DTLB LOAD      ACCESS:  205413111  HIT:  205134764  MISS:     278347
cpu0_DTLB RFO       ACCESS:   44824563  HIT:   44784189  MISS:      40374
cpu0_DTLB PREFETCH  ACCESS:          0  HIT:          0  MISS:          0
cpu0_DTLB WRITEBACK ACCESS:          0  HIT:          0  MISS:          0
cpu0_DTLB TRANSLATION ACCESS:          0  HIT:          0  MISS:          0
cpu0_DTLB PREFETCH  REQUESTED:          0  ISSUED:          0  USEFUL:          0  USELESS:          0
cpu0_DTLB AVERAGE MISS LATENCY: 10.3064 cycles
cpu0_ITLB TOTAL     ACCESS:   66765509  HIT:   66765310  MISS:        199
cpu0_ITLB LOAD      ACCESS:   66765509  HIT:   66765310  MISS:        199
cpu0_ITLB RFO       ACCESS:          0  HIT:          0  MISS:          0
cpu0_ITLB PREFETCH  ACCESS:          0  HIT:          0  MISS:          0
cpu0_ITLB WRITEBACK ACCESS:          0  HIT:          0  MISS:          0
cpu0_ITLB TRANSLATION ACCESS:          0  HIT:          0  MISS:          0
cpu0_ITLB PREFETCH  REQUESTED:          0  ISSUED:          0  USEFUL:          0  USELESS:          0
cpu0_ITLB AVERAGE MISS LATENCY: 86.5477 cycles
cpu0_L1I TOTAL     ACCESS:   37302095  HIT:   37233017  MISS:      69078
cpu0_L1I LOAD      ACCESS:   37302095  HIT:   37233017  MISS:      69078
cpu0_L1I RFO       ACCESS:          0  HIT:          0  MISS:          0
cpu0_L1I PREFETCH  ACCESS:          0  HIT:          0  MISS:          0
cpu0_L1I WRITEBACK ACCESS:          0  HIT:          0  MISS:          0
cpu0_L1I TRANSLATION ACCESS:          0  HIT:          0  MISS:          0
cpu0_L1I PREFETCH  REQUESTED:          0  ISSUED:          0  USEFUL:          0  USELESS:          0
cpu0_L1I AVERAGE MISS LATENCY: 139.608 cycles
cpu0_STLB TOTAL     ACCESS:     318920  HIT:     314114  MISS:       4806
cpu0_STLB LOAD      ACCESS:     278546  HIT:     275288  MISS:       3258
cpu0_STLB RFO       ACCESS:      40374  HIT:      38826  MISS:       1548
cpu0_STLB PREFETCH  ACCESS:          0  HIT:          0  MISS:          0
cpu0_STLB WRITEBACK ACCESS:          0  HIT:          0  MISS:          0
cpu0_STLB TRANSLATION ACCESS:          0  HIT:          0  MISS:          0
cpu0_STLB PREFETCH  REQUESTED:          0  ISSUED:          0  USEFUL:          0  USELESS:          0
cpu0_STLB AVERAGE MISS LATENCY: 89.2118 cycles
cpu0_L1D TOTAL     ACCESS:  456015267  HIT:  452240966  MISS:    3774301
cpu0_L1D LOAD      ACCESS:  197374655  HIT:  196160507  MISS:    1214148
cpu0_L1D RFO       ACCESS:   68703635  HIT:   67943039  MISS:     760596
cpu0_L1D PREFETCH  ACCESS:  189932346  HIT:  188134528  MISS:    1797818
cpu0_L1D WRITEBACK ACCESS:          0  HIT:          0  MISS:          0
cpu0_L1D TRANSLATION ACCESS:       4631  HIT:       2892  MISS:       1739
cpu0_L1D PREFETCH  REQUESTED:  198915356  ISSUED:  195751661  USEFUL:    2127029  USELESS:     162116
cpu0_L1D AVERAGE MISS LATENCY: 78.1412 cycles
cpu0_L2C TOTAL     ACCESS:    6035736  HIT:    3911537  MISS:    2124199
cpu0_L2C LOAD      ACCESS:     793342  HIT:     495004  MISS:     298338
cpu0_L2C RFO       ACCESS:     758978  HIT:      60916  MISS:     698062
cpu0_L2C PREFETCH  ACCESS:    3666454  HIT:    2542192  MISS:    1124262
cpu0_L2C WRITEBACK ACCESS:     815223  HIT:     812243  MISS:       2980
cpu0_L2C TRANSLATION ACCESS:       1739  HIT:       1182  MISS:        557
cpu0_L2C PREFETCH  REQUESTED:    1460648  ISSUED:    1455690  USEFUL:      56150  USELESS:      22173
cpu0_L2C AVERAGE MISS LATENCY: 164.748 cycles
LLC TOTAL     ACCESS:    2838715  HIT:    1991860  MISS:     846855
LLC LOAD      ACCESS:     298333  HIT:     221119  MISS:      77214
LLC RFO       ACCESS:     698060  HIT:     368557  MISS:     329503
LLC PREFETCH  ACCESS:    1126143  HIT:     690578  MISS:     435565
LLC WRITEBACK ACCESS:     715622  HIT:     711087  MISS:       4535
LLC TRANSLATION ACCESS:        557  HIT:        519  MISS:         38
LLC PREFETCH  REQUESTED:          0  ISSUED:          0  USEFUL:          0  USELESS:          0
LLC AVERAGE MISS LATENCY: 346.631 cycles

DRAM Statistics
 CHANNEL 0
 RQ ROW_BUFFER_HIT:     198312  ROW_BUFFER_MISS:     643601
 DBUS AVG_CONGESTED_CYCLE:    3.92378
 WQ ROW_BUFFER_HIT:      50925  ROW_BUFFER_MISS:     322794  FULL:          0


CPU 0 Branch Prediction Accuracy: 94.4853% MPKI: 5.1234 Average ROB Occupancy at Mispredict: 77.3231
Branch type MPKI
BRANCH_DIRECT_JUMP: 0.000262
BRANCH_INDIRECT: 0.001169
BRANCH_CONDITIONAL: 5.07871
BRANCH_DIRECT_CALL: 0.04125
BRANCH_INDIRECT_CALL: 0.000229
BRANCH_RETURN: 0.001775

