
*** ChampSim Multicore Out-of-Order Simulator ***

Warmup Instructions: 200000000
Simulation Instructions: 1000000000
Number of CPUs: 1
Off-chip DRAM Size: 4 GiB Channels: 1 Width: 64-bit Data Rate: 3200 MT/s

VirtualMemory physical capacity: 8588881920 num_ppages: 2096895
VirtualMemory page size: 4096 log2_page_size: 12

CPU 0 runs tracer/pin/traces/spec2k6/429.mcf-51B.champsimtrace.xz
Basic BTB sets: 1024 ways: 8 indirect buffer size: 4096 RAS size: 64
cpu0_L1D next line prefetcher
cpu0_L2C IP-based stride prefetcher
WARNING: The extended signature CACHE::prefetch_line(ip, base_addr, pf_addr, fill_this_level, prefetch_metadata) is deprecated.
WARNING: Use CACHE::prefetch_line(pf_addr, fill_this_level, prefetch_metadata) instead.
Heartbeat CPU 0 instructions: 10000000 cycles: 3226851 heartbeat IPC: 3.099 cumulative IPC: 3.099 (Simulation time: 0 hr 0 min 34 sec) 
Heartbeat CPU 0 instructions: 20000002 cycles: 6434667 heartbeat IPC: 3.11739 cumulative IPC: 3.10816 (Simulation time: 0 hr 1 min 8 sec) 
Heartbeat CPU 0 instructions: 30000000 cycles: 9668995 heartbeat IPC: 3.09183 cumulative IPC: 3.1027 (Simulation time: 0 hr 1 min 42 sec) 
Heartbeat CPU 0 instructions: 40000004 cycles: 12865731 heartbeat IPC: 3.12819 cumulative IPC: 3.10903 (Simulation time: 0 hr 2 min 15 sec) 
Heartbeat CPU 0 instructions: 50000001 cycles: 16073218 heartbeat IPC: 3.1177 cumulative IPC: 3.11076 (Simulation time: 0 hr 2 min 52 sec) 
Heartbeat CPU 0 instructions: 60000002 cycles: 19262150 heartbeat IPC: 3.13585 cumulative IPC: 3.11492 (Simulation time: 0 hr 3 min 24 sec) 
Heartbeat CPU 0 instructions: 70000001 cycles: 22461274 heartbeat IPC: 3.12586 cumulative IPC: 3.11648 (Simulation time: 0 hr 3 min 56 sec) 
Heartbeat CPU 0 instructions: 80000000 cycles: 25649882 heartbeat IPC: 3.13616 cumulative IPC: 3.11892 (Simulation time: 0 hr 4 min 27 sec) 
Heartbeat CPU 0 instructions: 90000001 cycles: 28786066 heartbeat IPC: 3.18859 cumulative IPC: 3.12651 (Simulation time: 0 hr 4 min 58 sec) 
Heartbeat CPU 0 instructions: 100000001 cycles: 31998859 heartbeat IPC: 3.11256 cumulative IPC: 3.12511 (Simulation time: 0 hr 5 min 40 sec) 
Heartbeat CPU 0 instructions: 110000002 cycles: 35158622 heartbeat IPC: 3.16479 cumulative IPC: 3.12868 (Simulation time: 0 hr 6 min 11 sec) 
Heartbeat CPU 0 instructions: 120000000 cycles: 38357208 heartbeat IPC: 3.12638 cumulative IPC: 3.12849 (Simulation time: 0 hr 6 min 43 sec) 
Heartbeat CPU 0 instructions: 130000003 cycles: 41491592 heartbeat IPC: 3.19042 cumulative IPC: 3.13316 (Simulation time: 0 hr 7 min 15 sec) 
Heartbeat CPU 0 instructions: 140000003 cycles: 44696199 heartbeat IPC: 3.12051 cumulative IPC: 3.13226 (Simulation time: 0 hr 7 min 51 sec) 
Heartbeat CPU 0 instructions: 150000002 cycles: 47910589 heartbeat IPC: 3.11101 cumulative IPC: 3.13083 (Simulation time: 0 hr 8 min 23 sec) 
Heartbeat CPU 0 instructions: 160000003 cycles: 51100953 heartbeat IPC: 3.13444 cumulative IPC: 3.13106 (Simulation time: 0 hr 8 min 54 sec) 
Heartbeat CPU 0 instructions: 170000001 cycles: 54199486 heartbeat IPC: 3.22733 cumulative IPC: 3.13656 (Simulation time: 0 hr 9 min 25 sec) 
Heartbeat CPU 0 instructions: 180000001 cycles: 57369606 heartbeat IPC: 3.15445 cumulative IPC: 3.13755 (Simulation time: 0 hr 10 min 0 sec) 
Heartbeat CPU 0 instructions: 190000004 cycles: 60529939 heartbeat IPC: 3.16422 cumulative IPC: 3.13894 (Simulation time: 0 hr 10 min 38 sec) 
Heartbeat CPU 0 instructions: 200000002 cycles: 63671038 heartbeat IPC: 3.1836 cumulative IPC: 3.14115 (Simulation time: 0 hr 11 min 9 sec) 

Warmup complete CPU 0 instructions: 200000002 cycles: 63671038 (Simulation time: 0 hr 11 min 9 sec) 

Heartbeat CPU 0 instructions: 210000003 cycles: 212897667 heartbeat IPC: 0.0670122 cumulative IPC: 0.0670122 (Simulation time: 0 hr 15 min 59 sec) 
Heartbeat CPU 0 instructions: 220000002 cycles: 391883568 heartbeat IPC: 0.0558703 cumulative IPC: 0.0609361 (Simulation time: 0 hr 22 min 21 sec) 
Heartbeat CPU 0 instructions: 230000002 cycles: 552089746 heartbeat IPC: 0.0624196 cumulative IPC: 0.0614227 (Simulation time: 0 hr 29 min 6 sec) 
Heartbeat CPU 0 instructions: 240000000 cycles: 706412817 heartbeat IPC: 0.0647991 cumulative IPC: 0.0622334 (Simulation time: 0 hr 36 min 8 sec) 
Heartbeat CPU 0 instructions: 250000000 cycles: 894668987 heartbeat IPC: 0.0531191 cumulative IPC: 0.0601686 (Simulation time: 0 hr 42 min 47 sec) 
Heartbeat CPU 0 instructions: 260000004 cycles: 1073287723 heartbeat IPC: 0.0559852 cumulative IPC: 0.0594285 (Simulation time: 0 hr 50 min 20 sec) 
Heartbeat CPU 0 instructions: 270000004 cycles: 1260471417 heartbeat IPC: 0.0534235 cumulative IPC: 0.0584893 (Simulation time: 0 hr 56 min 57 sec) 
Heartbeat CPU 0 instructions: 280000000 cycles: 1417412957 heartbeat IPC: 0.063718 cumulative IPC: 0.0590955 (Simulation time: 1 hr 3 min 11 sec) 
Heartbeat CPU 0 instructions: 290000004 cycles: 1587708655 heartbeat IPC: 0.0587214 cumulative IPC: 0.0590537 (Simulation time: 1 hr 9 min 49 sec) 
Heartbeat CPU 0 instructions: 300000000 cycles: 1743280941 heartbeat IPC: 0.0642788 cumulative IPC: 0.0595376 (Simulation time: 1 hr 15 min 40 sec) 
Heartbeat CPU 0 instructions: 310000001 cycles: 1917132263 heartbeat IPC: 0.0575204 cumulative IPC: 0.0593484 (Simulation time: 1 hr 22 min 27 sec) 
Heartbeat CPU 0 instructions: 320000002 cycles: 2080350703 heartbeat IPC: 0.0612676 cumulative IPC: 0.0595037 (Simulation time: 1 hr 28 min 54 sec) 
Heartbeat CPU 0 instructions: 330000004 cycles: 2250055276 heartbeat IPC: 0.0589259 cumulative IPC: 0.0594589 (Simulation time: 1 hr 35 min 0 sec) 
Heartbeat CPU 0 instructions: 340000000 cycles: 2411931197 heartbeat IPC: 0.0617757 cumulative IPC: 0.0596186 (Simulation time: 1 hr 40 min 55 sec) 
Heartbeat CPU 0 instructions: 350000004 cycles: 2565541287 heartbeat IPC: 0.0650999 cumulative IPC: 0.0599551 (Simulation time: 1 hr 46 min 22 sec) 
Heartbeat CPU 0 instructions: 360000000 cycles: 2720383482 heartbeat IPC: 0.0645819 cumulative IPC: 0.0602248 (Simulation time: 1 hr 51 min 18 sec) 
Heartbeat CPU 0 instructions: 370000004 cycles: 2889093396 heartbeat IPC: 0.0592734 cumulative IPC: 0.060168 (Simulation time: 1 hr 56 min 16 sec) 
Heartbeat CPU 0 instructions: 380000000 cycles: 3043152585 heartbeat IPC: 0.0649101 cumulative IPC: 0.0604132 (Simulation time: 2 hr 1 min 2 sec) 
Heartbeat CPU 0 instructions: 390000001 cycles: 3199401673 heartbeat IPC: 0.0640004 cumulative IPC: 0.0605919 (Simulation time: 2 hr 5 min 48 sec) 
Heartbeat CPU 0 instructions: 400000000 cycles: 3369251157 heartbeat IPC: 0.0588757 cumulative IPC: 0.0605038 (Simulation time: 2 hr 10 min 49 sec) 
Heartbeat CPU 0 instructions: 410000001 cycles: 3546231278 heartbeat IPC: 0.0565035 cumulative IPC: 0.0603005 (Simulation time: 2 hr 16 min 3 sec) 
Heartbeat CPU 0 instructions: 420000000 cycles: 3713212347 heartbeat IPC: 0.059887 cumulative IPC: 0.0602815 (Simulation time: 2 hr 21 min 4 sec) 
Heartbeat CPU 0 instructions: 430000002 cycles: 3902956942 heartbeat IPC: 0.0527024 cumulative IPC: 0.059907 (Simulation time: 2 hr 26 min 30 sec) 
Heartbeat CPU 0 instructions: 440000001 cycles: 4053423436 heartbeat IPC: 0.06646 cumulative IPC: 0.0601541 (Simulation time: 2 hr 30 min 48 sec) 
Heartbeat CPU 0 instructions: 450000002 cycles: 4200000194 heartbeat IPC: 0.0682236 cumulative IPC: 0.0604401 (Simulation time: 2 hr 35 min 5 sec) 
Heartbeat CPU 0 instructions: 460000001 cycles: 4358169892 heartbeat IPC: 0.0632232 cumulative IPC: 0.0605426 (Simulation time: 2 hr 39 min 57 sec) 
Heartbeat CPU 0 instructions: 470000001 cycles: 4539034421 heartbeat IPC: 0.05529 cumulative IPC: 0.0603303 (Simulation time: 2 hr 45 min 6 sec) 
Heartbeat CPU 0 instructions: 480000000 cycles: 4759983691 heartbeat IPC: 0.0452593 cumulative IPC: 0.0596212 (Simulation time: 2 hr 50 min 57 sec) 
Heartbeat CPU 0 instructions: 490000001 cycles: 4913755459 heartbeat IPC: 0.0650314 cumulative IPC: 0.0597928 (Simulation time: 2 hr 55 min 24 sec) 
Heartbeat CPU 0 instructions: 500000002 cycles: 5086949091 heartbeat IPC: 0.0577388 cumulative IPC: 0.059722 (Simulation time: 3 hr 0 min 12 sec) 
Heartbeat CPU 0 instructions: 510000000 cycles: 5230875999 heartbeat IPC: 0.0694797 cumulative IPC: 0.0599937 (Simulation time: 3 hr 4 min 27 sec) 
Heartbeat CPU 0 instructions: 520000002 cycles: 5401602595 heartbeat IPC: 0.0585732 cumulative IPC: 0.0599483 (Simulation time: 3 hr 9 min 21 sec) 
Heartbeat CPU 0 instructions: 530000002 cycles: 5546169131 heartbeat IPC: 0.0691723 cumulative IPC: 0.0601915 (Simulation time: 3 hr 13 min 35 sec) 
Heartbeat CPU 0 instructions: 540000000 cycles: 5719466970 heartbeat IPC: 0.0577041 cumulative IPC: 0.0601153 (Simulation time: 3 hr 18 min 23 sec) 
Heartbeat CPU 0 instructions: 550000000 cycles: 5858199180 heartbeat IPC: 0.0720813 cumulative IPC: 0.0604018 (Simulation time: 3 hr 22 min 31 sec) 
Heartbeat CPU 0 instructions: 560000001 cycles: 6018554704 heartbeat IPC: 0.0623614 cumulative IPC: 0.0604546 (Simulation time: 3 hr 27 min 6 sec) 
Heartbeat CPU 0 instructions: 570000002 cycles: 6159365528 heartbeat IPC: 0.0710173 cumulative IPC: 0.0606986 (Simulation time: 3 hr 31 min 16 sec) 
Heartbeat CPU 0 instructions: 580000001 cycles: 6297855166 heartbeat IPC: 0.0722076 cumulative IPC: 0.0609542 (Simulation time: 3 hr 35 min 14 sec) 
Heartbeat CPU 0 instructions: 590000001 cycles: 6456600226 heartbeat IPC: 0.0629941 cumulative IPC: 0.0610049 (Simulation time: 3 hr 39 min 38 sec) 
Heartbeat CPU 0 instructions: 600000001 cycles: 6619735345 heartbeat IPC: 0.0612989 cumulative IPC: 0.0610122 (Simulation time: 3 hr 44 min 13 sec) 
Heartbeat CPU 0 instructions: 610000001 cycles: 6758833439 heartbeat IPC: 0.0718917 cumulative IPC: 0.0612382 (Simulation time: 3 hr 48 min 46 sec) 
Heartbeat CPU 0 instructions: 620000000 cycles: 6938162104 heartbeat IPC: 0.0557635 cumulative IPC: 0.0610954 (Simulation time: 3 hr 54 min 5 sec) 
Heartbeat CPU 0 instructions: 630000002 cycles: 7077815191 heartbeat IPC: 0.071606 cumulative IPC: 0.0613047 (Simulation time: 3 hr 58 min 9 sec) 
Heartbeat CPU 0 instructions: 640000000 cycles: 7252825368 heartbeat IPC: 0.0571395 cumulative IPC: 0.0612033 (Simulation time: 4 hr 3 min 13 sec) 
Heartbeat CPU 0 instructions: 650000001 cycles: 7408581478 heartbeat IPC: 0.0642029 cumulative IPC: 0.0612669 (Simulation time: 4 hr 7 min 43 sec) 
Heartbeat CPU 0 instructions: 660000003 cycles: 7564920151 heartbeat IPC: 0.0639637 cumulative IPC: 0.0613231 (Simulation time: 4 hr 12 min 10 sec) 
Heartbeat CPU 0 instructions: 670000000 cycles: 7730350350 heartbeat IPC: 0.0604484 cumulative IPC: 0.0613042 (Simulation time: 4 hr 16 min 54 sec) 
Heartbeat CPU 0 instructions: 680000000 cycles: 7874834136 heartbeat IPC: 0.0692119 cumulative IPC: 0.0614505 (Simulation time: 4 hr 21 min 2 sec) 
Heartbeat CPU 0 instructions: 690000003 cycles: 8009897404 heartbeat IPC: 0.0740394 cumulative IPC: 0.0616645 (Simulation time: 4 hr 24 min 52 sec) 
Heartbeat CPU 0 instructions: 700000001 cycles: 8172084380 heartbeat IPC: 0.0616572 cumulative IPC: 0.0616643 (Simulation time: 4 hr 29 min 37 sec) 
Heartbeat CPU 0 instructions: 710000004 cycles: 8359056141 heartbeat IPC: 0.053484 cumulative IPC: 0.06148 (Simulation time: 4 hr 35 min 6 sec) 
Heartbeat CPU 0 instructions: 720000000 cycles: 8504975649 heartbeat IPC: 0.0685309 cumulative IPC: 0.0616019 (Simulation time: 4 hr 39 min 36 sec) 
Heartbeat CPU 0 instructions: 730000000 cycles: 8669007852 heartbeat IPC: 0.0609636 cumulative IPC: 0.0615897 (Simulation time: 4 hr 44 min 57 sec) 
Heartbeat CPU 0 instructions: 740000000 cycles: 8814097853 heartbeat IPC: 0.0689227 cumulative IPC: 0.0617113 (Simulation time: 4 hr 49 min 21 sec) 
Heartbeat CPU 0 instructions: 750000000 cycles: 8982890425 heartbeat IPC: 0.0592443 cumulative IPC: 0.0616646 (Simulation time: 4 hr 54 min 13 sec) 
Heartbeat CPU 0 instructions: 760000000 cycles: 9123666845 heartbeat IPC: 0.0710346 cumulative IPC: 0.0618102 (Simulation time: 4 hr 58 min 34 sec) 
Heartbeat CPU 0 instructions: 770000004 cycles: 9304638575 heartbeat IPC: 0.0552573 cumulative IPC: 0.0616819 (Simulation time: 5 hr 3 min 44 sec) 
Heartbeat CPU 0 instructions: 780000000 cycles: 9448510705 heartbeat IPC: 0.0695061 cumulative IPC: 0.0618018 (Simulation time: 5 hr 7 min 57 sec) 
Heartbeat CPU 0 instructions: 790000000 cycles: 9618799984 heartbeat IPC: 0.0587236 cumulative IPC: 0.0617469 (Simulation time: 5 hr 12 min 42 sec) 
Heartbeat CPU 0 instructions: 800000001 cycles: 9755351810 heartbeat IPC: 0.0732323 cumulative IPC: 0.0619088 (Simulation time: 5 hr 16 min 48 sec) 
Heartbeat CPU 0 instructions: 810000001 cycles: 9911059197 heartbeat IPC: 0.064223 cumulative IPC: 0.0619454 (Simulation time: 5 hr 21 min 13 sec) 
Heartbeat CPU 0 instructions: 820000000 cycles: 10082195581 heartbeat IPC: 0.0584329 cumulative IPC: 0.0618854 (Simulation time: 5 hr 26 min 11 sec) 
Heartbeat CPU 0 instructions: 830000000 cycles: 10237556664 heartbeat IPC: 0.0643662 cumulative IPC: 0.0619232 (Simulation time: 5 hr 30 min 46 sec) 
Heartbeat CPU 0 instructions: 840000000 cycles: 10405481714 heartbeat IPC: 0.0595504 cumulative IPC: 0.0618847 (Simulation time: 5 hr 35 min 45 sec) 
Heartbeat CPU 0 instructions: 850000002 cycles: 10572101152 heartbeat IPC: 0.060017 cumulative IPC: 0.0618551 (Simulation time: 5 hr 40 min 42 sec) 
Heartbeat CPU 0 instructions: 860000002 cycles: 10725173174 heartbeat IPC: 0.0653287 cumulative IPC: 0.061905 (Simulation time: 5 hr 45 min 22 sec) 
Heartbeat CPU 0 instructions: 870000002 cycles: 10895645157 heartbeat IPC: 0.0586607 cumulative IPC: 0.0618539 (Simulation time: 5 hr 50 min 18 sec) 
Heartbeat CPU 0 instructions: 880000000 cycles: 11034611686 heartbeat IPC: 0.0719598 cumulative IPC: 0.0619819 (Simulation time: 5 hr 54 min 41 sec) 
Heartbeat CPU 0 instructions: 890000002 cycles: 11211856823 heartbeat IPC: 0.056419 cumulative IPC: 0.0618935 (Simulation time: 5 hr 59 min 42 sec) 
Heartbeat CPU 0 instructions: 900000002 cycles: 11373031421 heartbeat IPC: 0.0620445 cumulative IPC: 0.0618956 (Simulation time: 6 hr 4 min 12 sec) 
Heartbeat CPU 0 instructions: 910000001 cycles: 11522882364 heartbeat IPC: 0.066733 cumulative IPC: 0.0619589 (Simulation time: 6 hr 8 min 29 sec) 
Heartbeat CPU 0 instructions: 920000001 cycles: 11660550289 heartbeat IPC: 0.0726386 cumulative IPC: 0.0620857 (Simulation time: 6 hr 12 min 18 sec) 
Heartbeat CPU 0 instructions: 930000002 cycles: 11830802518 heartbeat IPC: 0.0587364 cumulative IPC: 0.0620372 (Simulation time: 6 hr 17 min 12 sec) 
Heartbeat CPU 0 instructions: 940000000 cycles: 11972646181 heartbeat IPC: 0.0705001 cumulative IPC: 0.062138 (Simulation time: 6 hr 21 min 26 sec) 
Heartbeat CPU 0 instructions: 950000004 cycles: 12146310654 heartbeat IPC: 0.0575823 cumulative IPC: 0.0620725 (Simulation time: 6 hr 26 min 14 sec) 
Heartbeat CPU 0 instructions: 960000002 cycles: 12304768946 heartbeat IPC: 0.0631081 cumulative IPC: 0.0620859 (Simulation time: 6 hr 30 min 39 sec) 
Heartbeat CPU 0 instructions: 970000003 cycles: 12446087834 heartbeat IPC: 0.070762 cumulative IPC: 0.062185 (Simulation time: 6 hr 34 min 56 sec) 
Heartbeat CPU 0 instructions: 980000000 cycles: 12623591558 heartbeat IPC: 0.0563368 cumulative IPC: 0.0621023 (Simulation time: 6 hr 40 min 0 sec) 
Heartbeat CPU 0 instructions: 990000004 cycles: 12770734374 heartbeat IPC: 0.0679612 cumulative IPC: 0.0621701 (Simulation time: 6 hr 44 min 14 sec) 
Heartbeat CPU 0 instructions: 1000000003 cycles: 12943060723 heartbeat IPC: 0.0580294 cumulative IPC: 0.0621147 (Simulation time: 6 hr 48 min 57 sec) 
Heartbeat CPU 0 instructions: 1010000002 cycles: 13095284723 heartbeat IPC: 0.0656927 cumulative IPC: 0.0621565 (Simulation time: 6 hr 53 min 27 sec) 
Heartbeat CPU 0 instructions: 1020000000 cycles: 13274028151 heartbeat IPC: 0.0559461 cumulative IPC: 0.0620725 (Simulation time: 6 hr 58 min 36 sec) 
Heartbeat CPU 0 instructions: 1030000002 cycles: 13418800903 heartbeat IPC: 0.0690738 cumulative IPC: 0.0621484 (Simulation time: 7 hr 3 min 8 sec) 
Heartbeat CPU 0 instructions: 1040000003 cycles: 13585689849 heartbeat IPC: 0.0599201 cumulative IPC: 0.0621209 (Simulation time: 7 hr 8 min 14 sec) 
Heartbeat CPU 0 instructions: 1050000001 cycles: 13758076614 heartbeat IPC: 0.0580091 cumulative IPC: 0.0620691 (Simulation time: 7 hr 13 min 5 sec) 
Heartbeat CPU 0 instructions: 1060000000 cycles: 13900491397 heartbeat IPC: 0.0702174 cumulative IPC: 0.062153 (Simulation time: 7 hr 17 min 22 sec) 
Heartbeat CPU 0 instructions: 1070000000 cycles: 14078852443 heartbeat IPC: 0.0560661 cumulative IPC: 0.0620755 (Simulation time: 7 hr 22 min 15 sec) 
Heartbeat CPU 0 instructions: 1080000000 cycles: 14222388763 heartbeat IPC: 0.0696688 cumulative IPC: 0.0621525 (Simulation time: 7 hr 26 min 20 sec) 
Heartbeat CPU 0 instructions: 1090000004 cycles: 14375386954 heartbeat IPC: 0.0653603 cumulative IPC: 0.0621868 (Simulation time: 7 hr 30 min 47 sec) 
Heartbeat CPU 0 instructions: 1100000000 cycles: 14532325595 heartbeat IPC: 0.0637191 cumulative IPC: 0.0622034 (Simulation time: 7 hr 35 min 24 sec) 
Heartbeat CPU 0 instructions: 1110000000 cycles: 14708290315 heartbeat IPC: 0.0568296 cumulative IPC: 0.0621389 (Simulation time: 7 hr 40 min 16 sec) 
Heartbeat CPU 0 instructions: 1120000001 cycles: 14889548935 heartbeat IPC: 0.0551698 cumulative IPC: 0.0620537 (Simulation time: 7 hr 45 min 15 sec) 
Heartbeat CPU 0 instructions: 1130000001 cycles: 15043130825 heartbeat IPC: 0.0651118 cumulative IPC: 0.062085 (Simulation time: 7 hr 49 min 43 sec) 
Heartbeat CPU 0 instructions: 1140000001 cycles: 15213640578 heartbeat IPC: 0.0586477 cumulative IPC: 0.0620463 (Simulation time: 7 hr 54 min 30 sec) 
Heartbeat CPU 0 instructions: 1150000004 cycles: 15379284556 heartbeat IPC: 0.0603705 cumulative IPC: 0.0620282 (Simulation time: 7 hr 59 min 7 sec) 
Heartbeat CPU 0 instructions: 1160000003 cycles: 15528103249 heartbeat IPC: 0.0671959 cumulative IPC: 0.0620779 (Simulation time: 8 hr 3 min 16 sec) 
Heartbeat CPU 0 instructions: 1170000001 cycles: 15701050851 heartbeat IPC: 0.057821 cumulative IPC: 0.0620309 (Simulation time: 8 hr 7 min 48 sec) 
Heartbeat CPU 0 instructions: 1180000003 cycles: 15847472579 heartbeat IPC: 0.0682959 cumulative IPC: 0.062089 (Simulation time: 8 hr 11 min 45 sec) 
Heartbeat CPU 0 instructions: 1190000000 cycles: 16008707467 heartbeat IPC: 0.0620213 cumulative IPC: 0.0620883 (Simulation time: 8 hr 16 min 8 sec) 
Heartbeat CPU 0 instructions: 1200000003 cycles: 16176290203 heartbeat IPC: 0.059672 cumulative IPC: 0.0620632 (Simulation time: 8 hr 20 min 45 sec) 
Finished CPU 0 instructions: 1000000001 cycles: 16112619165 cumulative IPC: 0.0620632 (Simulation time: 8 hr 20 min 45 sec) 

ChampSim completed all CPUs

Region of Interest Statistics

CPU 0 cumulative IPC: 0.0620632 instructions: 1000000001 cycles: 16112619165
cpu0_DTLB TOTAL     ACCESS:  223610168  HIT:  144056551  MISS:   79553617
cpu0_DTLB LOAD      ACCESS:  189387483  HIT:  115966092  MISS:   73421391
cpu0_DTLB RFO       ACCESS:   34222685  HIT:   28090459  MISS:    6132226
cpu0_DTLB PREFETCH  ACCESS:          0  HIT:          0  MISS:          0
cpu0_DTLB WRITEBACK ACCESS:          0  HIT:          0  MISS:          0
cpu0_DTLB TRANSLATION ACCESS:          0  HIT:          0  MISS:          0
cpu0_DTLB PREFETCH  REQUESTED:          0  ISSUED:          0  USEFUL:          0  USELESS:          0
cpu0_DTLB AVERAGE MISS LATENCY: 11.7809 cycles
cpu0_ITLB TOTAL     ACCESS:  115423727  HIT:  115423727  MISS:          0
cpu0_ITLB LOAD      ACCESS:  115423727  HIT:  115423727  MISS:          0
cpu0_ITLB RFO       ACCESS:          0  HIT:          0  MISS:          0
cpu0_ITLB PREFETCH  ACCESS:          0  HIT:          0  MISS:          0
cpu0_ITLB WRITEBACK ACCESS:          0  HIT:          0  MISS:          0
cpu0_ITLB TRANSLATION ACCESS:          0  HIT:          0  MISS:          0
cpu0_ITLB PREFETCH  REQUESTED:          0  ISSUED:          0  USEFUL:          0  USELESS:          0
cpu0_ITLB AVERAGE MISS LATENCY: -nan cycles
cpu0_L1I TOTAL     ACCESS:        536  HIT:        536  MISS:          0
cpu0_L1I LOAD      ACCESS:        536  HIT:        536  MISS:          0
cpu0_L1I RFO       ACCESS:          0  HIT:          0  MISS:          0
cpu0_L1I PREFETCH  ACCESS:          0  HIT:          0  MISS:          0
cpu0_L1I WRITEBACK ACCESS:          0  HIT:          0  MISS:          0
cpu0_L1I TRANSLATION ACCESS:          0  HIT:          0  MISS:          0
cpu0_L1I PREFETCH  REQUESTED:          0  ISSUED:          0  USEFUL:          0  USELESS:          0
cpu0_L1I AVERAGE MISS LATENCY: -nan cycles
cpu0_STLB TOTAL     ACCESS:   79553618  HIT:   68581968  MISS:   10971650
cpu0_STLB LOAD      ACCESS:   73421392  HIT:   62549438  MISS:   10871954
cpu0_STLB RFO       ACCESS:    6132226  HIT:    6032530  MISS:      99696
cpu0_STLB PREFETCH  ACCESS:          0  HIT:          0  MISS:          0
cpu0_STLB WRITEBACK ACCESS:          0  HIT:          0  MISS:          0
cpu0_STLB TRANSLATION ACCESS:          0  HIT:          0  MISS:          0
cpu0_STLB PREFETCH  REQUESTED:          0  ISSUED:          0  USEFUL:          0  USELESS:          0
cpu0_STLB AVERAGE MISS LATENCY: 20.0713 cycles
cpu0_L1D TOTAL     ACCESS:  448002171  HIT:  259580717  MISS:  188421454
cpu0_L1D LOAD      ACCESS:  216712276  HIT:  115962304  MISS:  100749972
cpu0_L1D RFO       ACCESS:   44412204  HIT:   40256548  MISS:    4155656
cpu0_L1D PREFETCH  ACCESS:  175946805  HIT:   94626980  MISS:   81319825
cpu0_L1D WRITEBACK ACCESS:          0  HIT:          0  MISS:          0
cpu0_L1D TRANSLATION ACCESS:   10930886  HIT:    8734885  MISS:    2196001
cpu0_L1D PREFETCH  REQUESTED:  217861055  ISSUED:  199083929  USEFUL:   25330422  USELESS:   57383588
cpu0_L1D AVERAGE MISS LATENCY: 321.758 cycles
cpu0_L2C TOTAL     ACCESS:  214650049  HIT:   82212594  MISS:  132437455
cpu0_L2C LOAD      ACCESS:   99353536  HIT:   32805404  MISS:   66548132
cpu0_L2C RFO       ACCESS:    4155118  HIT:    2399875  MISS:    1755243
cpu0_L2C PREFETCH  ACCESS:   82907826  HIT:   19576164  MISS:   63331662
cpu0_L2C WRITEBACK ACCESS:   26037568  HIT:   26035810  MISS:       1758
cpu0_L2C TRANSLATION ACCESS:    2196001  HIT:    1395341  MISS:     800660
cpu0_L2C PREFETCH  REQUESTED:     206007  ISSUED:     202931  USEFUL:      29761  USELESS:      89761
cpu0_L2C AVERAGE MISS LATENCY: 444.469 cycles
LLC TOTAL     ACCESS:  150330082  HIT:   65643796  MISS:   84686286
LLC LOAD      ACCESS:   66547685  HIT:   30252095  MISS:   36295590
LLC RFO       ACCESS:    1755195  HIT:     531005  MISS:    1224190
LLC PREFETCH  ACCESS:   63332618  HIT:   16531355  MISS:   46801263
LLC WRITEBACK ACCESS:   17893924  HIT:   17543481  MISS:     350443
LLC TRANSLATION ACCESS:     800660  HIT:     785860  MISS:      14800
LLC PREFETCH  REQUESTED:          0  ISSUED:          0  USEFUL:          0  USELESS:          0
LLC AVERAGE MISS LATENCY: 652.872 cycles

DRAM Statistics
 CHANNEL 0
 RQ ROW_BUFFER_HIT:     203434  ROW_BUFFER_MISS:   84099912
 DBUS AVG_CONGESTED_CYCLE:    3.89861
 WQ ROW_BUFFER_HIT:      82088  ROW_BUFFER_MISS:   15412087  FULL:          0


CPU 0 Branch Prediction Accuracy: 86.8591% MPKI: 31.4955 Average ROB Occupancy at Mispredict: 19.5295
Branch type MPKI
BRANCH_DIRECT_JUMP: 1e-06
BRANCH_INDIRECT: 0
BRANCH_CONDITIONAL: 31.4955
BRANCH_DIRECT_CALL: 0
BRANCH_INDIRECT_CALL: 0
BRANCH_RETURN: 0

