
*** ChampSim Multicore Out-of-Order Simulator ***

Warmup Instructions: 1000000
Simulation Instructions: 1000000000
Number of CPUs: 1
Off-chip DRAM Size: 4 GiB Channels: 1 Width: 64-bit Data Rate: 3200 MT/s

VirtualMemory physical capacity: 8588881920 num_ppages: 2096895
VirtualMemory page size: 4096 log2_page_size: 12

CPU 0 runs tracer/pin/traces/spec2k17/625.x264_s-18B.champsimtrace.xz
Basic BTB sets: 1024 ways: 8 indirect buffer size: 4096 RAS size: 64
cpu0_L1D next line prefetcher
cpu0_L2C IP-based stride prefetcher
WARNING: The extended signature CACHE::prefetch_line(ip, base_addr, pf_addr, fill_this_level, prefetch_metadata) is deprecated.
WARNING: Use CACHE::prefetch_line(pf_addr, fill_this_level, prefetch_metadata) instead.

Warmup complete CPU 0 instructions: 1000003 cycles: 253064 (Simulation time: 0 hr 0 min 3 sec) 

Heartbeat CPU 0 instructions: 10000000 cycles: 4050315 heartbeat IPC: 2.46894 cumulative IPC: 2.37013 (Simulation time: 0 hr 0 min 36 sec) 
Heartbeat CPU 0 instructions: 20000000 cycles: 8226892 heartbeat IPC: 2.39431 cumulative IPC: 2.38279 (Simulation time: 0 hr 1 min 11 sec) 
Heartbeat CPU 0 instructions: 30000003 cycles: 12281136 heartbeat IPC: 2.46655 cumulative IPC: 2.41103 (Simulation time: 0 hr 1 min 49 sec) 
Heartbeat CPU 0 instructions: 40000003 cycles: 16303526 heartbeat IPC: 2.48608 cumulative IPC: 2.42984 (Simulation time: 0 hr 2 min 26 sec) 
Heartbeat CPU 0 instructions: 50000004 cycles: 20343391 heartbeat IPC: 2.47533 cumulative IPC: 2.43898 (Simulation time: 0 hr 3 min 3 sec) 
Heartbeat CPU 0 instructions: 60000004 cycles: 24395904 heartbeat IPC: 2.4676 cumulative IPC: 2.44379 (Simulation time: 0 hr 5 min 20 sec) 
Heartbeat CPU 0 instructions: 70000003 cycles: 28438106 heartbeat IPC: 2.4739 cumulative IPC: 2.44811 (Simulation time: 0 hr 10 min 26 sec) 
Heartbeat CPU 0 instructions: 80000003 cycles: 32467266 heartbeat IPC: 2.48191 cumulative IPC: 2.45233 (Simulation time: 0 hr 13 min 57 sec) 
Heartbeat CPU 0 instructions: 90000004 cycles: 36522826 heartbeat IPC: 2.46575 cumulative IPC: 2.45383 (Simulation time: 0 hr 19 min 38 sec) 
Heartbeat CPU 0 instructions: 100000001 cycles: 40521543 heartbeat IPC: 2.5008 cumulative IPC: 2.4585 (Simulation time: 0 hr 22 min 23 sec) 
Heartbeat CPU 0 instructions: 110000004 cycles: 44429364 heartbeat IPC: 2.55897 cumulative IPC: 2.46739 (Simulation time: 0 hr 25 min 9 sec) 
Heartbeat CPU 0 instructions: 120000003 cycles: 48348097 heartbeat IPC: 2.55184 cumulative IPC: 2.47427 (Simulation time: 0 hr 25 min 55 sec) 
Heartbeat CPU 0 instructions: 130000002 cycles: 52260503 heartbeat IPC: 2.55597 cumulative IPC: 2.48041 (Simulation time: 0 hr 26 min 42 sec) 
Heartbeat CPU 0 instructions: 140000003 cycles: 60310747 heartbeat IPC: 1.2422 cumulative IPC: 2.31444 (Simulation time: 0 hr 29 min 32 sec) 
Heartbeat CPU 0 instructions: 150000002 cycles: 65745183 heartbeat IPC: 1.84012 cumulative IPC: 2.27508 (Simulation time: 0 hr 30 min 21 sec) 
Heartbeat CPU 0 instructions: 160000001 cycles: 69594971 heartbeat IPC: 2.59755 cumulative IPC: 2.29299 (Simulation time: 0 hr 31 min 7 sec) 
Heartbeat CPU 0 instructions: 170000004 cycles: 73551058 heartbeat IPC: 2.52775 cumulative IPC: 2.30566 (Simulation time: 0 hr 31 min 52 sec) 
Heartbeat CPU 0 instructions: 180000002 cycles: 77318960 heartbeat IPC: 2.654 cumulative IPC: 2.32269 (Simulation time: 0 hr 32 min 38 sec) 
Heartbeat CPU 0 instructions: 190000002 cycles: 81148797 heartbeat IPC: 2.61108 cumulative IPC: 2.33634 (Simulation time: 0 hr 33 min 23 sec) 
Heartbeat CPU 0 instructions: 200000000 cycles: 85102312 heartbeat IPC: 2.52939 cumulative IPC: 2.34534 (Simulation time: 0 hr 34 min 9 sec) 
Heartbeat CPU 0 instructions: 210000001 cycles: 88885577 heartbeat IPC: 2.64322 cumulative IPC: 2.35805 (Simulation time: 0 hr 34 min 54 sec) 
Heartbeat CPU 0 instructions: 220000002 cycles: 92726050 heartbeat IPC: 2.60385 cumulative IPC: 2.36826 (Simulation time: 0 hr 35 min 40 sec) 
Heartbeat CPU 0 instructions: 230000000 cycles: 96622673 heartbeat IPC: 2.56632 cumulative IPC: 2.37627 (Simulation time: 0 hr 36 min 26 sec) 
Heartbeat CPU 0 instructions: 240000004 cycles: 100460506 heartbeat IPC: 2.60564 cumulative IPC: 2.38505 (Simulation time: 0 hr 37 min 12 sec) 
Heartbeat CPU 0 instructions: 250000004 cycles: 104391565 heartbeat IPC: 2.54384 cumulative IPC: 2.39105 (Simulation time: 0 hr 37 min 58 sec) 
Heartbeat CPU 0 instructions: 260000001 cycles: 108196769 heartbeat IPC: 2.62798 cumulative IPC: 2.3994 (Simulation time: 0 hr 38 min 43 sec) 
Heartbeat CPU 0 instructions: 270000004 cycles: 112013132 heartbeat IPC: 2.6203 cumulative IPC: 2.40694 (Simulation time: 0 hr 39 min 28 sec) 
Heartbeat CPU 0 instructions: 280000000 cycles: 115960848 heartbeat IPC: 2.53311 cumulative IPC: 2.41125 (Simulation time: 0 hr 40 min 13 sec) 
Heartbeat CPU 0 instructions: 290000001 cycles: 119763586 heartbeat IPC: 2.62968 cumulative IPC: 2.4182 (Simulation time: 0 hr 40 min 59 sec) 
Heartbeat CPU 0 instructions: 300000002 cycles: 123550705 heartbeat IPC: 2.64053 cumulative IPC: 2.42503 (Simulation time: 0 hr 41 min 44 sec) 
Heartbeat CPU 0 instructions: 310000001 cycles: 127469819 heartbeat IPC: 2.5516 cumulative IPC: 2.42893 (Simulation time: 0 hr 42 min 30 sec) 
Heartbeat CPU 0 instructions: 320000001 cycles: 131255749 heartbeat IPC: 2.64136 cumulative IPC: 2.43506 (Simulation time: 0 hr 43 min 16 sec) 
Heartbeat CPU 0 instructions: 330000002 cycles: 135028889 heartbeat IPC: 2.65031 cumulative IPC: 2.44109 (Simulation time: 0 hr 44 min 1 sec) 
Heartbeat CPU 0 instructions: 340000000 cycles: 138810521 heartbeat IPC: 2.64436 cumulative IPC: 2.44664 (Simulation time: 0 hr 44 min 47 sec) 
Heartbeat CPU 0 instructions: 350000000 cycles: 142600516 heartbeat IPC: 2.63853 cumulative IPC: 2.45175 (Simulation time: 0 hr 45 min 34 sec) 
Heartbeat CPU 0 instructions: 360000004 cycles: 146380456 heartbeat IPC: 2.64555 cumulative IPC: 2.45676 (Simulation time: 0 hr 46 min 20 sec) 
Heartbeat CPU 0 instructions: 370000000 cycles: 150161359 heartbeat IPC: 2.64487 cumulative IPC: 2.4615 (Simulation time: 0 hr 47 min 6 sec) 
Heartbeat CPU 0 instructions: 380000002 cycles: 153944076 heartbeat IPC: 2.6436 cumulative IPC: 2.46599 (Simulation time: 0 hr 47 min 51 sec) 
Heartbeat CPU 0 instructions: 390000002 cycles: 157756134 heartbeat IPC: 2.62326 cumulative IPC: 2.46979 (Simulation time: 0 hr 48 min 37 sec) 
Heartbeat CPU 0 instructions: 400000001 cycles: 174064131 heartbeat IPC: 0.613196 cumulative IPC: 2.2956 (Simulation time: 0 hr 50 min 35 sec) 
Heartbeat CPU 0 instructions: 410000002 cycles: 178263172 heartbeat IPC: 2.3815 cumulative IPC: 2.29762 (Simulation time: 0 hr 51 min 33 sec) 
Heartbeat CPU 0 instructions: 420000002 cycles: 183553367 heartbeat IPC: 1.89029 cumulative IPC: 2.28587 (Simulation time: 0 hr 52 min 34 sec) 
Heartbeat CPU 0 instructions: 430000003 cycles: 188170677 heartbeat IPC: 2.16576 cumulative IPC: 2.28292 (Simulation time: 0 hr 53 min 25 sec) 
Heartbeat CPU 0 instructions: 440000001 cycles: 192055212 heartbeat IPC: 2.57431 cumulative IPC: 2.28882 (Simulation time: 0 hr 54 min 13 sec) 
Heartbeat CPU 0 instructions: 450000001 cycles: 195883129 heartbeat IPC: 2.61239 cumulative IPC: 2.29515 (Simulation time: 0 hr 55 min 3 sec) 
Heartbeat CPU 0 instructions: 460000004 cycles: 199781217 heartbeat IPC: 2.56536 cumulative IPC: 2.30043 (Simulation time: 0 hr 55 min 51 sec) 
Heartbeat CPU 0 instructions: 470000003 cycles: 203689444 heartbeat IPC: 2.5587 cumulative IPC: 2.30539 (Simulation time: 0 hr 56 min 40 sec) 
Heartbeat CPU 0 instructions: 480000002 cycles: 207556853 heartbeat IPC: 2.58571 cumulative IPC: 2.31062 (Simulation time: 0 hr 57 min 28 sec) 
Heartbeat CPU 0 instructions: 490000003 cycles: 211507940 heartbeat IPC: 2.53095 cumulative IPC: 2.31474 (Simulation time: 0 hr 58 min 17 sec) 
Heartbeat CPU 0 instructions: 500000003 cycles: 215428903 heartbeat IPC: 2.55039 cumulative IPC: 2.31903 (Simulation time: 0 hr 59 min 5 sec) 
Heartbeat CPU 0 instructions: 510000004 cycles: 219322009 heartbeat IPC: 2.56864 cumulative IPC: 2.32347 (Simulation time: 0 hr 59 min 53 sec) 
Heartbeat CPU 0 instructions: 520000003 cycles: 223145762 heartbeat IPC: 2.61523 cumulative IPC: 2.32847 (Simulation time: 1 hr 0 min 40 sec) 
Heartbeat CPU 0 instructions: 530000001 cycles: 227006344 heartbeat IPC: 2.59028 cumulative IPC: 2.33293 (Simulation time: 1 hr 1 min 28 sec) 
Heartbeat CPU 0 instructions: 540000004 cycles: 230900335 heartbeat IPC: 2.56806 cumulative IPC: 2.3369 (Simulation time: 1 hr 2 min 17 sec) 
Heartbeat CPU 0 instructions: 550000001 cycles: 234670974 heartbeat IPC: 2.65207 cumulative IPC: 2.34197 (Simulation time: 1 hr 3 min 6 sec) 
Heartbeat CPU 0 instructions: 560000000 cycles: 238500656 heartbeat IPC: 2.61118 cumulative IPC: 2.3463 (Simulation time: 1 hr 3 min 54 sec) 
Heartbeat CPU 0 instructions: 570000001 cycles: 254981208 heartbeat IPC: 0.606776 cumulative IPC: 2.23375 (Simulation time: 1 hr 5 min 55 sec) 
Heartbeat CPU 0 instructions: 580000003 cycles: 260411476 heartbeat IPC: 1.84153 cumulative IPC: 2.22557 (Simulation time: 1 hr 7 min 8 sec) 
Heartbeat CPU 0 instructions: 590000004 cycles: 264960804 heartbeat IPC: 2.19813 cumulative IPC: 2.2251 (Simulation time: 1 hr 7 min 56 sec) 
Heartbeat CPU 0 instructions: 600000003 cycles: 269316279 heartbeat IPC: 2.29596 cumulative IPC: 2.22624 (Simulation time: 1 hr 8 min 50 sec) 
Heartbeat CPU 0 instructions: 610000000 cycles: 273717013 heartbeat IPC: 2.27235 cumulative IPC: 2.22698 (Simulation time: 1 hr 9 min 43 sec) 
Heartbeat CPU 0 instructions: 620000003 cycles: 278079359 heartbeat IPC: 2.29235 cumulative IPC: 2.22801 (Simulation time: 1 hr 10 min 36 sec) 
Heartbeat CPU 0 instructions: 630000003 cycles: 282444024 heartbeat IPC: 2.29113 cumulative IPC: 2.22899 (Simulation time: 1 hr 11 min 29 sec) 
Heartbeat CPU 0 instructions: 640000003 cycles: 286796308 heartbeat IPC: 2.29764 cumulative IPC: 2.23003 (Simulation time: 1 hr 12 min 22 sec) 
Heartbeat CPU 0 instructions: 650000002 cycles: 291117806 heartbeat IPC: 2.31401 cumulative IPC: 2.23128 (Simulation time: 1 hr 13 min 14 sec) 
Heartbeat CPU 0 instructions: 660000000 cycles: 295415136 heartbeat IPC: 2.32703 cumulative IPC: 2.23267 (Simulation time: 1 hr 14 min 5 sec) 
Heartbeat CPU 0 instructions: 670000000 cycles: 310959120 heartbeat IPC: 0.643336 cumulative IPC: 2.15316 (Simulation time: 1 hr 16 min 6 sec) 
Heartbeat CPU 0 instructions: 680000002 cycles: 316391584 heartbeat IPC: 1.84079 cumulative IPC: 2.14779 (Simulation time: 1 hr 17 min 11 sec) 
Heartbeat CPU 0 instructions: 690000001 cycles: 320966348 heartbeat IPC: 2.1859 cumulative IPC: 2.14834 (Simulation time: 1 hr 18 min 1 sec) 
Heartbeat CPU 0 instructions: 700000001 cycles: 325350967 heartbeat IPC: 2.2807 cumulative IPC: 2.15012 (Simulation time: 1 hr 18 min 52 sec) 
Heartbeat CPU 0 instructions: 710000001 cycles: 329725734 heartbeat IPC: 2.28584 cumulative IPC: 2.15192 (Simulation time: 1 hr 19 min 44 sec) 
Heartbeat CPU 0 instructions: 720000001 cycles: 334085978 heartbeat IPC: 2.29345 cumulative IPC: 2.15377 (Simulation time: 1 hr 20 min 35 sec) 
Heartbeat CPU 0 instructions: 730000000 cycles: 338467443 heartbeat IPC: 2.28234 cumulative IPC: 2.15544 (Simulation time: 1 hr 21 min 25 sec) 
Heartbeat CPU 0 instructions: 740000003 cycles: 342784896 heartbeat IPC: 2.31618 cumulative IPC: 2.15746 (Simulation time: 1 hr 22 min 16 sec) 
Heartbeat CPU 0 instructions: 750000001 cycles: 347108762 heartbeat IPC: 2.31274 cumulative IPC: 2.1594 (Simulation time: 1 hr 23 min 6 sec) 
Heartbeat CPU 0 instructions: 760000000 cycles: 362833777 heartbeat IPC: 0.635929 cumulative IPC: 2.09333 (Simulation time: 1 hr 24 min 54 sec) 
Heartbeat CPU 0 instructions: 770000004 cycles: 367109432 heartbeat IPC: 2.33882 cumulative IPC: 2.09619 (Simulation time: 1 hr 25 min 50 sec) 
Heartbeat CPU 0 instructions: 780000001 cycles: 372474254 heartbeat IPC: 1.86399 cumulative IPC: 2.09284 (Simulation time: 1 hr 26 min 42 sec) 
Heartbeat CPU 0 instructions: 790000000 cycles: 376202052 heartbeat IPC: 2.68255 cumulative IPC: 2.09869 (Simulation time: 1 hr 27 min 23 sec) 
Heartbeat CPU 0 instructions: 800000002 cycles: 379928118 heartbeat IPC: 2.6838 cumulative IPC: 2.10443 (Simulation time: 1 hr 28 min 4 sec) 
Heartbeat CPU 0 instructions: 810000004 cycles: 383656798 heartbeat IPC: 2.68191 cumulative IPC: 2.11005 (Simulation time: 1 hr 28 min 44 sec) 
Heartbeat CPU 0 instructions: 820000000 cycles: 387391928 heartbeat IPC: 2.67728 cumulative IPC: 2.11552 (Simulation time: 1 hr 29 min 24 sec) 
Heartbeat CPU 0 instructions: 830000001 cycles: 391117415 heartbeat IPC: 2.68421 cumulative IPC: 2.12094 (Simulation time: 1 hr 30 min 6 sec) 
Heartbeat CPU 0 instructions: 840000001 cycles: 394862254 heartbeat IPC: 2.67034 cumulative IPC: 2.12615 (Simulation time: 1 hr 30 min 46 sec) 
Heartbeat CPU 0 instructions: 850000000 cycles: 398572204 heartbeat IPC: 2.69545 cumulative IPC: 2.13146 (Simulation time: 1 hr 31 min 26 sec) 
Heartbeat CPU 0 instructions: 860000001 cycles: 402269641 heartbeat IPC: 2.70458 cumulative IPC: 2.13673 (Simulation time: 1 hr 32 min 6 sec) 
Heartbeat CPU 0 instructions: 870000004 cycles: 405963920 heartbeat IPC: 2.70689 cumulative IPC: 2.14192 (Simulation time: 1 hr 32 min 47 sec) 
Heartbeat CPU 0 instructions: 880000001 cycles: 409730497 heartbeat IPC: 2.65493 cumulative IPC: 2.14664 (Simulation time: 1 hr 33 min 26 sec) 
Heartbeat CPU 0 instructions: 890000001 cycles: 413516814 heartbeat IPC: 2.64109 cumulative IPC: 2.15117 (Simulation time: 1 hr 34 min 4 sec) 
Heartbeat CPU 0 instructions: 900000000 cycles: 417326500 heartbeat IPC: 2.62489 cumulative IPC: 2.1555 (Simulation time: 1 hr 34 min 44 sec) 
Heartbeat CPU 0 instructions: 910000000 cycles: 421132635 heartbeat IPC: 2.62734 cumulative IPC: 2.15976 (Simulation time: 1 hr 35 min 23 sec) 
Heartbeat CPU 0 instructions: 920000000 cycles: 424942020 heartbeat IPC: 2.6251 cumulative IPC: 2.16394 (Simulation time: 1 hr 36 min 2 sec) 
Heartbeat CPU 0 instructions: 930000000 cycles: 428754279 heartbeat IPC: 2.62312 cumulative IPC: 2.16802 (Simulation time: 1 hr 36 min 41 sec) 
Heartbeat CPU 0 instructions: 940000000 cycles: 432556299 heartbeat IPC: 2.63018 cumulative IPC: 2.17209 (Simulation time: 1 hr 37 min 20 sec) 
Heartbeat CPU 0 instructions: 950000002 cycles: 436362581 heartbeat IPC: 2.62724 cumulative IPC: 2.17606 (Simulation time: 1 hr 37 min 57 sec) 
Heartbeat CPU 0 instructions: 960000002 cycles: 440174983 heartbeat IPC: 2.62302 cumulative IPC: 2.17993 (Simulation time: 1 hr 38 min 35 sec) 
Heartbeat CPU 0 instructions: 970000000 cycles: 443963312 heartbeat IPC: 2.63969 cumulative IPC: 2.18386 (Simulation time: 1 hr 39 min 12 sec) 
Heartbeat CPU 0 instructions: 980000001 cycles: 447729932 heartbeat IPC: 2.6549 cumulative IPC: 2.18782 (Simulation time: 1 hr 39 min 50 sec) 
Heartbeat CPU 0 instructions: 990000000 cycles: 451514896 heartbeat IPC: 2.64203 cumulative IPC: 2.19163 (Simulation time: 1 hr 40 min 27 sec) 
Heartbeat CPU 0 instructions: 1000000002 cycles: 455300340 heartbeat IPC: 2.6417 cumulative IPC: 2.19538 (Simulation time: 1 hr 41 min 5 sec) 
Finished CPU 0 instructions: 1000000003 cycles: 455419598 cumulative IPC: 2.19578 (Simulation time: 1 hr 41 min 8 sec) 

ChampSim completed all CPUs

Region of Interest Statistics

CPU 0 cumulative IPC: 2.19578 instructions: 1000000003 cycles: 455419598
cpu0_DTLB TOTAL     ACCESS:  128478722  HIT:  127332276  MISS:    1146446
cpu0_DTLB LOAD      ACCESS:   91149871  HIT:   90409078  MISS:     740793
cpu0_DTLB RFO       ACCESS:   37328851  HIT:   36923198  MISS:     405653
cpu0_DTLB PREFETCH  ACCESS:          0  HIT:          0  MISS:          0
cpu0_DTLB WRITEBACK ACCESS:          0  HIT:          0  MISS:          0
cpu0_DTLB TRANSLATION ACCESS:          0  HIT:          0  MISS:          0
cpu0_DTLB PREFETCH  REQUESTED:          0  ISSUED:          0  USEFUL:          0  USELESS:          0
cpu0_DTLB AVERAGE MISS LATENCY: 11.3052 cycles
cpu0_ITLB TOTAL     ACCESS:   44084130  HIT:   44081973  MISS:       2157
cpu0_ITLB LOAD      ACCESS:   44084130  HIT:   44081973  MISS:       2157
cpu0_ITLB RFO       ACCESS:          0  HIT:          0  MISS:          0
cpu0_ITLB PREFETCH  ACCESS:          0  HIT:          0  MISS:          0
cpu0_ITLB WRITEBACK ACCESS:          0  HIT:          0  MISS:          0
cpu0_ITLB TRANSLATION ACCESS:          0  HIT:          0  MISS:          0
cpu0_ITLB PREFETCH  REQUESTED:          0  ISSUED:          0  USEFUL:          0  USELESS:          0
cpu0_ITLB AVERAGE MISS LATENCY: 31.7548 cycles
cpu0_L1I TOTAL     ACCESS:   30121387  HIT:   28137764  MISS:    1983623
cpu0_L1I LOAD      ACCESS:   30121387  HIT:   28137764  MISS:    1983623
cpu0_L1I RFO       ACCESS:          0  HIT:          0  MISS:          0
cpu0_L1I PREFETCH  ACCESS:          0  HIT:          0  MISS:          0
cpu0_L1I WRITEBACK ACCESS:          0  HIT:          0  MISS:          0
cpu0_L1I TRANSLATION ACCESS:          0  HIT:          0  MISS:          0
cpu0_L1I PREFETCH  REQUESTED:          0  ISSUED:          0  USEFUL:          0  USELESS:          0
cpu0_L1I AVERAGE MISS LATENCY: 16.7675 cycles
cpu0_STLB TOTAL     ACCESS:    1148603  HIT:    1131110  MISS:      17493
cpu0_STLB LOAD      ACCESS:     742950  HIT:     731801  MISS:      11149
cpu0_STLB RFO       ACCESS:     405653  HIT:     399309  MISS:       6344
cpu0_STLB PREFETCH  ACCESS:          0  HIT:          0  MISS:          0
cpu0_STLB WRITEBACK ACCESS:          0  HIT:          0  MISS:          0
cpu0_STLB TRANSLATION ACCESS:          0  HIT:          0  MISS:          0
cpu0_STLB PREFETCH  REQUESTED:          0  ISSUED:          0  USEFUL:          0  USELESS:          0
cpu0_STLB AVERAGE MISS LATENCY: 151.156 cycles
cpu0_L1D TOTAL     ACCESS:  240510890  HIT:  234790953  MISS:    5719937
cpu0_L1D LOAD      ACCESS:   88526329  HIT:   86275432  MISS:    2250897
cpu0_L1D RFO       ACCESS:   67638126  HIT:   66483208  MISS:    1154918
cpu0_L1D PREFETCH  ACCESS:   84330356  HIT:   82018471  MISS:    2311885
cpu0_L1D WRITEBACK ACCESS:          0  HIT:          0  MISS:          0
cpu0_L1D TRANSLATION ACCESS:      16079  HIT:      13842  MISS:       2237
cpu0_L1D PREFETCH  REQUESTED:   89583823  ISSUED:   87381535  USEFUL:    1588429  USELESS:     834340
cpu0_L1D AVERAGE MISS LATENCY: 136.758 cycles
cpu0_L2C TOTAL     ACCESS:    9901991  HIT:    8309149  MISS:    1592842
cpu0_L2C LOAD      ACCESS:    4124799  HIT:    3694098  MISS:     430701
cpu0_L2C RFO       ACCESS:    1149153  HIT:     762323  MISS:     386830
cpu0_L2C PREFETCH  ACCESS:    3207168  HIT:    2436256  MISS:     770912
cpu0_L2C WRITEBACK ACCESS:    1418634  HIT:    1414968  MISS:       3666
cpu0_L2C TRANSLATION ACCESS:       2237  HIT:       1504  MISS:        733
cpu0_L2C PREFETCH  REQUESTED:     966335  ISSUED:     822612  USEFUL:      30524  USELESS:      13971
cpu0_L2C AVERAGE MISS LATENCY: 504.867 cycles
LLC TOTAL     ACCESS:    2124662  HIT:     870155  MISS:    1254507
LLC LOAD      ACCESS:     430698  HIT:     135130  MISS:     295568
LLC RFO       ACCESS:     386715  HIT:      15103  MISS:     371612
LLC PREFETCH  ACCESS:     778852  HIT:     207180  MISS:     571672
LLC WRITEBACK ACCESS:     527664  HIT:     512087  MISS:      15577
LLC TRANSLATION ACCESS:        733  HIT:        655  MISS:         78
LLC PREFETCH  REQUESTED:          0  ISSUED:          0  USEFUL:          0  USELESS:          0
LLC AVERAGE MISS LATENCY: 612.36 cycles

DRAM Statistics
 CHANNEL 0
 RQ ROW_BUFFER_HIT:      55394  ROW_BUFFER_MISS:    1183375
 DBUS AVG_CONGESTED_CYCLE:    3.95451
 WQ ROW_BUFFER_HIT:      22509  ROW_BUFFER_MISS:     473036  FULL:          0


CPU 0 Branch Prediction Accuracy: 92.228% MPKI: 3.12108 Average ROB Occupancy at Mispredict: 80.7252
Branch type MPKI
BRANCH_DIRECT_JUMP: 0.000274
BRANCH_INDIRECT: 0.000875
BRANCH_CONDITIONAL: 3.02896
BRANCH_DIRECT_CALL: 0.000472
BRANCH_INDIRECT_CALL: 0.019393
BRANCH_RETURN: 0.0711

