
*** ChampSim Multicore Out-of-Order Simulator ***

Warmup Instructions: 1000000
Simulation Instructions: 1000000000
Number of CPUs: 1
Off-chip DRAM Size: 4 GiB Channels: 1 Width: 64-bit Data Rate: 3200 MT/s

VirtualMemory physical capacity: 8588881920 num_ppages: 2096895
VirtualMemory page size: 4096 log2_page_size: 12

CPU 0 runs tracer/pin/traces/spec2k17/627.cam4_s-573B.champsimtrace.xz
Basic BTB sets: 1024 ways: 8 indirect buffer size: 4096 RAS size: 64
cpu0_L1D next line prefetcher
cpu0_L2C IP-based stride prefetcher
WARNING: The extended signature CACHE::prefetch_line(ip, base_addr, pf_addr, fill_this_level, prefetch_metadata) is deprecated.
WARNING: Use CACHE::prefetch_line(pf_addr, fill_this_level, prefetch_metadata) instead.

Warmup complete CPU 0 instructions: 1000002 cycles: 278158 (Simulation time: 0 hr 0 min 3 sec) 

Heartbeat CPU 0 instructions: 10000002 cycles: 13957593 heartbeat IPC: 0.716456 cumulative IPC: 0.657922 (Simulation time: 0 hr 1 min 12 sec) 
Heartbeat CPU 0 instructions: 20000000 cycles: 19366246 heartbeat IPC: 1.84889 cumulative IPC: 0.995385 (Simulation time: 0 hr 1 min 53 sec) 
Heartbeat CPU 0 instructions: 30000003 cycles: 24590286 heartbeat IPC: 1.91423 cumulative IPC: 1.19282 (Simulation time: 0 hr 2 min 38 sec) 
Heartbeat CPU 0 instructions: 40000002 cycles: 29677330 heartbeat IPC: 1.96578 cumulative IPC: 1.32657 (Simulation time: 0 hr 3 min 21 sec) 
Heartbeat CPU 0 instructions: 50000001 cycles: 35102708 heartbeat IPC: 1.84319 cumulative IPC: 1.40705 (Simulation time: 0 hr 4 min 2 sec) 
Heartbeat CPU 0 instructions: 60000002 cycles: 40502024 heartbeat IPC: 1.85209 cumulative IPC: 1.46679 (Simulation time: 0 hr 4 min 43 sec) 
Heartbeat CPU 0 instructions: 70000003 cycles: 45882253 heartbeat IPC: 1.85866 cumulative IPC: 1.51302 (Simulation time: 0 hr 5 min 24 sec) 
Heartbeat CPU 0 instructions: 80000004 cycles: 52799906 heartbeat IPC: 1.44558 cumulative IPC: 1.50414 (Simulation time: 0 hr 6 min 10 sec) 
Heartbeat CPU 0 instructions: 90000004 cycles: 60698754 heartbeat IPC: 1.26601 cumulative IPC: 1.47301 (Simulation time: 0 hr 6 min 56 sec) 
Heartbeat CPU 0 instructions: 100000000 cycles: 74033077 heartbeat IPC: 0.749944 cumulative IPC: 1.34228 (Simulation time: 0 hr 8 min 11 sec) 
Heartbeat CPU 0 instructions: 110000002 cycles: 126207101 heartbeat IPC: 0.191666 cumulative IPC: 0.865568 (Simulation time: 0 hr 13 min 43 sec) 
Heartbeat CPU 0 instructions: 120000004 cycles: 132316725 heartbeat IPC: 1.63676 cumulative IPC: 0.901252 (Simulation time: 0 hr 14 min 36 sec) 
Heartbeat CPU 0 instructions: 130000004 cycles: 137534266 heartbeat IPC: 1.91661 cumulative IPC: 0.939849 (Simulation time: 0 hr 15 min 29 sec) 
Heartbeat CPU 0 instructions: 140000001 cycles: 142717685 heartbeat IPC: 1.92923 cumulative IPC: 0.975853 (Simulation time: 0 hr 16 min 20 sec) 
Heartbeat CPU 0 instructions: 150000002 cycles: 148037043 heartbeat IPC: 1.87993 cumulative IPC: 1.0084 (Simulation time: 0 hr 17 min 6 sec) 
Heartbeat CPU 0 instructions: 160000004 cycles: 153493415 heartbeat IPC: 1.83272 cumulative IPC: 1.03776 (Simulation time: 0 hr 17 min 51 sec) 
Heartbeat CPU 0 instructions: 170000000 cycles: 158988063 heartbeat IPC: 1.81995 cumulative IPC: 1.06484 (Simulation time: 0 hr 18 min 35 sec) 
Heartbeat CPU 0 instructions: 180000003 cycles: 165641814 heartbeat IPC: 1.50291 cumulative IPC: 1.08246 (Simulation time: 0 hr 19 min 26 sec) 
Heartbeat CPU 0 instructions: 190000000 cycles: 173293626 heartbeat IPC: 1.30688 cumulative IPC: 1.09239 (Simulation time: 0 hr 20 min 19 sec) 
Heartbeat CPU 0 instructions: 200000000 cycles: 184914880 heartbeat IPC: 0.860492 cumulative IPC: 1.07779 (Simulation time: 0 hr 21 min 30 sec) 
Heartbeat CPU 0 instructions: 210000004 cycles: 238615033 heartbeat IPC: 0.186219 cumulative IPC: 0.87691 (Simulation time: 0 hr 27 min 19 sec) 
Heartbeat CPU 0 instructions: 220000003 cycles: 245200872 heartbeat IPC: 1.51841 cumulative IPC: 0.89416 (Simulation time: 0 hr 28 min 14 sec) 
Heartbeat CPU 0 instructions: 230000002 cycles: 250438514 heartbeat IPC: 1.90926 cumulative IPC: 0.915413 (Simulation time: 0 hr 29 min 7 sec) 
Heartbeat CPU 0 instructions: 240000001 cycles: 255572691 heartbeat IPC: 1.94773 cumulative IPC: 0.936174 (Simulation time: 0 hr 29 min 58 sec) 
Heartbeat CPU 0 instructions: 250000001 cycles: 260877106 heartbeat IPC: 1.88522 cumulative IPC: 0.955491 (Simulation time: 0 hr 30 min 45 sec) 
Heartbeat CPU 0 instructions: 260000000 cycles: 266253685 heartbeat IPC: 1.85992 cumulative IPC: 0.973774 (Simulation time: 0 hr 31 min 31 sec) 
Heartbeat CPU 0 instructions: 270000002 cycles: 271687736 heartbeat IPC: 1.84025 cumulative IPC: 0.991122 (Simulation time: 0 hr 32 min 17 sec) 
Heartbeat CPU 0 instructions: 280000002 cycles: 277316322 heartbeat IPC: 1.77665 cumulative IPC: 1.00708 (Simulation time: 0 hr 33 min 6 sec) 
Heartbeat CPU 0 instructions: 290000002 cycles: 284988061 heartbeat IPC: 1.30349 cumulative IPC: 1.01507 (Simulation time: 0 hr 33 min 59 sec) 
Heartbeat CPU 0 instructions: 300000002 cycles: 294595057 heartbeat IPC: 1.04091 cumulative IPC: 1.01591 (Simulation time: 0 hr 34 min 54 sec) 
Heartbeat CPU 0 instructions: 310000001 cycles: 350123038 heartbeat IPC: 0.180089 cumulative IPC: 0.883249 (Simulation time: 0 hr 40 min 58 sec) 
Heartbeat CPU 0 instructions: 320000001 cycles: 358082194 heartbeat IPC: 1.25641 cumulative IPC: 0.891549 (Simulation time: 0 hr 41 min 54 sec) 
Heartbeat CPU 0 instructions: 330000003 cycles: 363397525 heartbeat IPC: 1.88135 cumulative IPC: 0.906038 (Simulation time: 0 hr 42 min 47 sec) 
Heartbeat CPU 0 instructions: 340000000 cycles: 368486397 heartbeat IPC: 1.96507 cumulative IPC: 0.920675 (Simulation time: 0 hr 43 min 37 sec) 
Heartbeat CPU 0 instructions: 350000000 cycles: 373674345 heartbeat IPC: 1.92754 cumulative IPC: 0.934664 (Simulation time: 0 hr 44 min 27 sec) 
Heartbeat CPU 0 instructions: 360000004 cycles: 379008706 heartbeat IPC: 1.87464 cumulative IPC: 0.947903 (Simulation time: 0 hr 45 min 14 sec) 
Heartbeat CPU 0 instructions: 370000001 cycles: 384392393 heartbeat IPC: 1.85746 cumulative IPC: 0.960652 (Simulation time: 0 hr 46 min 0 sec) 
Heartbeat CPU 0 instructions: 380000003 cycles: 389742940 heartbeat IPC: 1.86897 cumulative IPC: 0.97313 (Simulation time: 0 hr 46 min 46 sec) 
Heartbeat CPU 0 instructions: 390000001 cycles: 396620727 heartbeat IPC: 1.45396 cumulative IPC: 0.981474 (Simulation time: 0 hr 47 min 37 sec) 
Heartbeat CPU 0 instructions: 400000001 cycles: 404551495 heartbeat IPC: 1.26091 cumulative IPC: 0.986956 (Simulation time: 0 hr 48 min 28 sec) 
Heartbeat CPU 0 instructions: 410000001 cycles: 422978084 heartbeat IPC: 0.542694 cumulative IPC: 0.967589 (Simulation time: 0 hr 50 min 28 sec) 
Heartbeat CPU 0 instructions: 420000000 cycles: 469994084 heartbeat IPC: 0.212694 cumulative IPC: 0.892029 (Simulation time: 0 hr 55 min 28 sec) 
Heartbeat CPU 0 instructions: 430000001 cycles: 475892294 heartbeat IPC: 1.69543 cumulative IPC: 0.901992 (Simulation time: 0 hr 56 min 24 sec) 
Heartbeat CPU 0 instructions: 440000001 cycles: 481160121 heartbeat IPC: 1.89832 cumulative IPC: 0.912906 (Simulation time: 0 hr 57 min 17 sec) 
Heartbeat CPU 0 instructions: 450000003 cycles: 486442602 heartbeat IPC: 1.89305 cumulative IPC: 0.923556 (Simulation time: 0 hr 58 min 8 sec) 
Heartbeat CPU 0 instructions: 460000000 cycles: 491723665 heartbeat IPC: 1.89356 cumulative IPC: 0.933979 (Simulation time: 0 hr 58 min 55 sec) 
Heartbeat CPU 0 instructions: 470000000 cycles: 497112150 heartbeat IPC: 1.85581 cumulative IPC: 0.943977 (Simulation time: 0 hr 59 min 41 sec) 
Heartbeat CPU 0 instructions: 480000002 cycles: 502482973 heartbeat IPC: 1.86191 cumulative IPC: 0.953794 (Simulation time: 1 hr 0 min 27 sec) 
Heartbeat CPU 0 instructions: 490000000 cycles: 509222314 heartbeat IPC: 1.48382 cumulative IPC: 0.960813 (Simulation time: 1 hr 1 min 18 sec) 
Heartbeat CPU 0 instructions: 500000001 cycles: 517106577 heartbeat IPC: 1.26835 cumulative IPC: 0.965504 (Simulation time: 1 hr 2 min 7 sec) 
Heartbeat CPU 0 instructions: 510000000 cycles: 529477979 heartbeat IPC: 0.808316 cumulative IPC: 0.961829 (Simulation time: 1 hr 3 min 26 sec) 
Heartbeat CPU 0 instructions: 520000004 cycles: 582524025 heartbeat IPC: 0.188516 cumulative IPC: 0.891376 (Simulation time: 1 hr 9 min 16 sec) 
Heartbeat CPU 0 instructions: 530000001 cycles: 588458237 heartbeat IPC: 1.68514 cumulative IPC: 0.899384 (Simulation time: 1 hr 10 min 12 sec) 
Heartbeat CPU 0 instructions: 540000002 cycles: 593716316 heartbeat IPC: 1.90184 cumulative IPC: 0.908266 (Simulation time: 1 hr 11 min 7 sec) 
Heartbeat CPU 0 instructions: 550000002 cycles: 598926145 heartbeat IPC: 1.91945 cumulative IPC: 0.917066 (Simulation time: 1 hr 11 min 59 sec) 
Heartbeat CPU 0 instructions: 560000000 cycles: 604203201 heartbeat IPC: 1.895 cumulative IPC: 0.925612 (Simulation time: 1 hr 12 min 47 sec) 
Heartbeat CPU 0 instructions: 570000000 cycles: 609480723 heartbeat IPC: 1.89483 cumulative IPC: 0.934008 (Simulation time: 1 hr 13 min 32 sec) 
Heartbeat CPU 0 instructions: 580000000 cycles: 614855798 heartbeat IPC: 1.86044 cumulative IPC: 0.94211 (Simulation time: 1 hr 14 min 18 sec) 
Heartbeat CPU 0 instructions: 590000000 cycles: 621515302 heartbeat IPC: 1.50161 cumulative IPC: 0.948108 (Simulation time: 1 hr 15 min 8 sec) 
Heartbeat CPU 0 instructions: 600000001 cycles: 629548291 heartbeat IPC: 1.24487 cumulative IPC: 0.951896 (Simulation time: 1 hr 16 min 0 sec) 
Heartbeat CPU 0 instructions: 610000004 cycles: 641502858 heartbeat IPC: 0.836501 cumulative IPC: 0.949745 (Simulation time: 1 hr 17 min 18 sec) 
Heartbeat CPU 0 instructions: 620000002 cycles: 694708007 heartbeat IPC: 0.187952 cumulative IPC: 0.891379 (Simulation time: 1 hr 22 min 50 sec) 
Heartbeat CPU 0 instructions: 630000003 cycles: 700773026 heartbeat IPC: 1.6488 cumulative IPC: 0.897937 (Simulation time: 1 hr 23 min 40 sec) 
Heartbeat CPU 0 instructions: 640000001 cycles: 706042039 heartbeat IPC: 1.89789 cumulative IPC: 0.905402 (Simulation time: 1 hr 24 min 29 sec) 
Heartbeat CPU 0 instructions: 650000000 cycles: 711233129 heartbeat IPC: 1.92638 cumulative IPC: 0.912857 (Simulation time: 1 hr 25 min 13 sec) 
Heartbeat CPU 0 instructions: 660000002 cycles: 716464804 heartbeat IPC: 1.91143 cumulative IPC: 0.920151 (Simulation time: 1 hr 25 min 54 sec) 
Heartbeat CPU 0 instructions: 670000002 cycles: 721818421 heartbeat IPC: 1.8679 cumulative IPC: 0.927183 (Simulation time: 1 hr 26 min 34 sec) 
Heartbeat CPU 0 instructions: 680000003 cycles: 727970918 heartbeat IPC: 1.62536 cumulative IPC: 0.933086 (Simulation time: 1 hr 27 min 19 sec) 
Heartbeat CPU 0 instructions: 690000002 cycles: 735737807 heartbeat IPC: 1.28752 cumulative IPC: 0.936829 (Simulation time: 1 hr 28 min 7 sec) 
Heartbeat CPU 0 instructions: 700000004 cycles: 747705306 heartbeat IPC: 0.835597 cumulative IPC: 0.935208 (Simulation time: 1 hr 29 min 12 sec) 
Heartbeat CPU 0 instructions: 710000001 cycles: 801356033 heartbeat IPC: 0.186391 cumulative IPC: 0.885058 (Simulation time: 1 hr 34 min 19 sec) 
Heartbeat CPU 0 instructions: 720000004 cycles: 807763899 heartbeat IPC: 1.56058 cumulative IPC: 0.890418 (Simulation time: 1 hr 35 min 8 sec) 
Heartbeat CPU 0 instructions: 730000001 cycles: 813161696 heartbeat IPC: 1.85261 cumulative IPC: 0.896807 (Simulation time: 1 hr 35 min 56 sec) 
Heartbeat CPU 0 instructions: 740000002 cycles: 818332240 heartbeat IPC: 1.93403 cumulative IPC: 0.903363 (Simulation time: 1 hr 36 min 34 sec) 
Heartbeat CPU 0 instructions: 750000004 cycles: 823524806 heartbeat IPC: 1.92583 cumulative IPC: 0.909812 (Simulation time: 1 hr 37 min 15 sec) 
Heartbeat CPU 0 instructions: 760000000 cycles: 828771974 heartbeat IPC: 1.90579 cumulative IPC: 0.91612 (Simulation time: 1 hr 37 min 54 sec) 
Heartbeat CPU 0 instructions: 770000004 cycles: 834991840 heartbeat IPC: 1.60775 cumulative IPC: 0.921274 (Simulation time: 1 hr 38 min 38 sec) 
Heartbeat CPU 0 instructions: 780000003 cycles: 842585365 heartbeat IPC: 1.31691 cumulative IPC: 0.924841 (Simulation time: 1 hr 39 min 24 sec) 
Heartbeat CPU 0 instructions: 790000004 cycles: 852921387 heartbeat IPC: 0.96749 cumulative IPC: 0.925358 (Simulation time: 1 hr 40 min 13 sec) 
Heartbeat CPU 0 instructions: 800000000 cycles: 908347189 heartbeat IPC: 0.180421 cumulative IPC: 0.879889 (Simulation time: 1 hr 44 min 13 sec) 
Heartbeat CPU 0 instructions: 810000000 cycles: 914819699 heartbeat IPC: 1.545 cumulative IPC: 0.884596 (Simulation time: 1 hr 44 min 56 sec) 
Heartbeat CPU 0 instructions: 820000002 cycles: 920119424 heartbeat IPC: 1.88689 cumulative IPC: 0.890371 (Simulation time: 1 hr 45 min 34 sec) 
Heartbeat CPU 0 instructions: 830000002 cycles: 925354629 heartbeat IPC: 1.91014 cumulative IPC: 0.896142 (Simulation time: 1 hr 46 min 10 sec) 
Heartbeat CPU 0 instructions: 840000003 cycles: 930515518 heartbeat IPC: 1.93765 cumulative IPC: 0.90192 (Simulation time: 1 hr 46 min 48 sec) 
Heartbeat CPU 0 instructions: 850000002 cycles: 935733025 heartbeat IPC: 1.91662 cumulative IPC: 0.90758 (Simulation time: 1 hr 47 min 23 sec) 
Heartbeat CPU 0 instructions: 860000003 cycles: 941409903 heartbeat IPC: 1.76153 cumulative IPC: 0.912731 (Simulation time: 1 hr 48 min 1 sec) 
Heartbeat CPU 0 instructions: 870000001 cycles: 949257217 heartbeat IPC: 1.27432 cumulative IPC: 0.915721 (Simulation time: 1 hr 48 min 43 sec) 
Heartbeat CPU 0 instructions: 880000003 cycles: 959713716 heartbeat IPC: 0.956343 cumulative IPC: 0.916164 (Simulation time: 1 hr 49 min 33 sec) 
Heartbeat CPU 0 instructions: 890000000 cycles: 1015087904 heartbeat IPC: 0.180589 cumulative IPC: 0.876026 (Simulation time: 1 hr 54 min 1 sec) 
Heartbeat CPU 0 instructions: 900000001 cycles: 1021752392 heartbeat IPC: 1.50049 cumulative IPC: 0.8801 (Simulation time: 1 hr 54 min 42 sec) 
Heartbeat CPU 0 instructions: 910000000 cycles: 1027003866 heartbeat IPC: 1.90423 cumulative IPC: 0.885339 (Simulation time: 1 hr 55 min 25 sec) 
Heartbeat CPU 0 instructions: 920000002 cycles: 1032185925 heartbeat IPC: 1.92974 cumulative IPC: 0.890583 (Simulation time: 1 hr 56 min 11 sec) 
Heartbeat CPU 0 instructions: 930000000 cycles: 1037521243 heartbeat IPC: 1.8743 cumulative IPC: 0.895643 (Simulation time: 1 hr 56 min 52 sec) 
Heartbeat CPU 0 instructions: 940000000 cycles: 1042881832 heartbeat IPC: 1.86547 cumulative IPC: 0.90063 (Simulation time: 1 hr 57 min 30 sec) 
Heartbeat CPU 0 instructions: 950000001 cycles: 1048297594 heartbeat IPC: 1.84646 cumulative IPC: 0.905518 (Simulation time: 1 hr 58 min 10 sec) 
Heartbeat CPU 0 instructions: 960000001 cycles: 1054932532 heartbeat IPC: 1.50717 cumulative IPC: 0.909303 (Simulation time: 1 hr 58 min 54 sec) 
Heartbeat CPU 0 instructions: 970000000 cycles: 1062699335 heartbeat IPC: 1.28753 cumulative IPC: 0.912068 (Simulation time: 1 hr 59 min 40 sec) 
Heartbeat CPU 0 instructions: 980000003 cycles: 1074306856 heartbeat IPC: 0.861511 cumulative IPC: 0.911521 (Simulation time: 2 hr 0 min 46 sec) 
Heartbeat CPU 0 instructions: 990000002 cycles: 1128139761 heartbeat IPC: 0.18576 cumulative IPC: 0.876881 (Simulation time: 2 hr 6 min 5 sec) 
Heartbeat CPU 0 instructions: 1000000001 cycles: 1134283859 heartbeat IPC: 1.62758 cumulative IPC: 0.880948 (Simulation time: 2 hr 6 min 54 sec) 
Finished CPU 0 instructions: 1000000003 cycles: 1134571710 cumulative IPC: 0.88139 (Simulation time: 2 hr 6 min 59 sec) 

ChampSim completed all CPUs

Region of Interest Statistics

CPU 0 cumulative IPC: 0.88139 instructions: 1000000003 cycles: 1134571710
cpu0_DTLB TOTAL     ACCESS:  160671977  HIT:  160025787  MISS:     646190
cpu0_DTLB LOAD      ACCESS:  107602888  HIT:  107115377  MISS:     487511
cpu0_DTLB RFO       ACCESS:   53069089  HIT:   52910410  MISS:     158679
cpu0_DTLB PREFETCH  ACCESS:          0  HIT:          0  MISS:          0
cpu0_DTLB WRITEBACK ACCESS:          0  HIT:          0  MISS:          0
cpu0_DTLB TRANSLATION ACCESS:          0  HIT:          0  MISS:          0
cpu0_DTLB PREFETCH  REQUESTED:          0  ISSUED:          0  USEFUL:          0  USELESS:          0
cpu0_DTLB AVERAGE MISS LATENCY: 15.4012 cycles
cpu0_ITLB TOTAL     ACCESS:   65773431  HIT:   65761216  MISS:      12215
cpu0_ITLB LOAD      ACCESS:   65773431  HIT:   65761216  MISS:      12215
cpu0_ITLB RFO       ACCESS:          0  HIT:          0  MISS:          0
cpu0_ITLB PREFETCH  ACCESS:          0  HIT:          0  MISS:          0
cpu0_ITLB WRITEBACK ACCESS:          0  HIT:          0  MISS:          0
cpu0_ITLB TRANSLATION ACCESS:          0  HIT:          0  MISS:          0
cpu0_ITLB PREFETCH  REQUESTED:          0  ISSUED:          0  USEFUL:          0  USELESS:          0
cpu0_ITLB AVERAGE MISS LATENCY: 17.9533 cycles
cpu0_L1I TOTAL     ACCESS:   61423573  HIT:   61019577  MISS:     403996
cpu0_L1I LOAD      ACCESS:   61423573  HIT:   61019577  MISS:     403996
cpu0_L1I RFO       ACCESS:          0  HIT:          0  MISS:          0
cpu0_L1I PREFETCH  ACCESS:          0  HIT:          0  MISS:          0
cpu0_L1I WRITEBACK ACCESS:          0  HIT:          0  MISS:          0
cpu0_L1I TRANSLATION ACCESS:          0  HIT:          0  MISS:          0
cpu0_L1I PREFETCH  REQUESTED:          0  ISSUED:          0  USEFUL:          0  USELESS:          0
cpu0_L1I AVERAGE MISS LATENCY: 136.8 cycles
cpu0_STLB TOTAL     ACCESS:     658405  HIT:     559825  MISS:      98580
cpu0_STLB LOAD      ACCESS:     499726  HIT:     479102  MISS:      20624
cpu0_STLB RFO       ACCESS:     158679  HIT:      80723  MISS:      77956
cpu0_STLB PREFETCH  ACCESS:          0  HIT:          0  MISS:          0
cpu0_STLB WRITEBACK ACCESS:          0  HIT:          0  MISS:          0
cpu0_STLB TRANSLATION ACCESS:          0  HIT:          0  MISS:          0
cpu0_STLB PREFETCH  REQUESTED:          0  ISSUED:          0  USEFUL:          0  USELESS:          0
cpu0_STLB AVERAGE MISS LATENCY: 42.5894 cycles
cpu0_L1D TOTAL     ACCESS:  301622597  HIT:  289805977  MISS:   11816620
cpu0_L1D LOAD      ACCESS:  111029678  HIT:  108508337  MISS:    2521341
cpu0_L1D RFO       ACCESS:   82520549  HIT:   76040911  MISS:    6479638
cpu0_L1D PREFETCH  ACCESS:  107976403  HIT:  105165537  MISS:    2810866
cpu0_L1D WRITEBACK ACCESS:          0  HIT:          0  MISS:          0
cpu0_L1D TRANSLATION ACCESS:      95967  HIT:      91192  MISS:       4775
cpu0_L1D PREFETCH  REQUESTED:  111709088  ISSUED:  110291732  USEFUL:    2556317  USELESS:     793716
cpu0_L1D AVERAGE MISS LATENCY: 391.338 cycles
cpu0_L2C TOTAL     ACCESS:   21041289  HIT:   14409098  MISS:    6632191
cpu0_L2C LOAD      ACCESS:    2390455  HIT:    1797837  MISS:     592618
cpu0_L2C RFO       ACCESS:    6474103  HIT:    1295041  MISS:    5179062
cpu0_L2C PREFETCH  ACCESS:    5170800  HIT:    4316061  MISS:     854739
cpu0_L2C WRITEBACK ACCESS:    7001156  HIT:    6997071  MISS:       4085
cpu0_L2C TRANSLATION ACCESS:       4775  HIT:       3088  MISS:       1687
cpu0_L2C PREFETCH  REQUESTED:    2409411  ISSUED:    1895659  USEFUL:      46112  USELESS:      20215
cpu0_L2C AVERAGE MISS LATENCY: 688.833 cycles
LLC TOTAL     ACCESS:   12016427  HIT:    6488176  MISS:    5528251
LLC LOAD      ACCESS:     592606  HIT:     282908  MISS:     309698
LLC RFO       ACCESS:    5179033  HIT:     356681  MISS:    4822352
LLC PREFETCH  ACCESS:     859794  HIT:     614648  MISS:     245146
LLC WRITEBACK ACCESS:    5383307  HIT:    5232929  MISS:     150378
LLC TRANSLATION ACCESS:       1687  HIT:       1010  MISS:        677
LLC PREFETCH  REQUESTED:          0  ISSUED:          0  USEFUL:          0  USELESS:          0
LLC AVERAGE MISS LATENCY: 795.094 cycles

DRAM Statistics
 CHANNEL 0
 RQ ROW_BUFFER_HIT:    1289783  ROW_BUFFER_MISS:    4087281
 DBUS AVG_CONGESTED_CYCLE:    3.98739
 WQ ROW_BUFFER_HIT:     433152  ROW_BUFFER_MISS:    4453552  FULL:        442


CPU 0 Branch Prediction Accuracy: 94.2635% MPKI: 7.67363 Average ROB Occupancy at Mispredict: 52.3733
Branch type MPKI
BRANCH_DIRECT_JUMP: 0.003432
BRANCH_INDIRECT: 0.001409
BRANCH_CONDITIONAL: 7.65102
BRANCH_DIRECT_CALL: 0.016796
BRANCH_INDIRECT_CALL: 0
BRANCH_RETURN: 0.000971

