
*** ChampSim Multicore Out-of-Order Simulator ***

Warmup Instructions: 1000000
Simulation Instructions: 1000000000
Number of CPUs: 1
Off-chip DRAM Size: 4 GiB Channels: 1 Width: 64-bit Data Rate: 3200 MT/s

VirtualMemory physical capacity: 8588881920 num_ppages: 2096895
VirtualMemory page size: 4096 log2_page_size: 12

CPU 0 runs tracer/pin/traces/spec2k6/444.namd-23B.champsimtrace.xz
Basic BTB sets: 1024 ways: 8 indirect buffer size: 4096 RAS size: 64
cpu0_L1D next line prefetcher
cpu0_L2C IP-based stride prefetcher
Initialize Hawkeye state
WARNING: The extended signature CACHE::prefetch_line(ip, base_addr, pf_addr, fill_this_level, prefetch_metadata) is deprecated.
WARNING: Use CACHE::prefetch_line(pf_addr, fill_this_level, prefetch_metadata) instead.

Warmup complete CPU 0 instructions: 1000003 cycles: 306288 (Simulation time: 0 hr 0 min 3 sec) 

Heartbeat CPU 0 instructions: 10000000 cycles: 4611337 heartbeat IPC: 2.16857 cumulative IPC: 2.09057 (Simulation time: 0 hr 0 min 47 sec) 
Heartbeat CPU 0 instructions: 20000002 cycles: 8987336 heartbeat IPC: 2.28519 cumulative IPC: 2.18868 (Simulation time: 0 hr 1 min 34 sec) 
Heartbeat CPU 0 instructions: 30000001 cycles: 13358455 heartbeat IPC: 2.28774 cumulative IPC: 2.22185 (Simulation time: 0 hr 2 min 16 sec) 
Heartbeat CPU 0 instructions: 40000003 cycles: 17848132 heartbeat IPC: 2.22733 cumulative IPC: 2.22326 (Simulation time: 0 hr 3 min 0 sec) 
Heartbeat CPU 0 instructions: 50000001 cycles: 22268050 heartbeat IPC: 2.26249 cumulative IPC: 2.23115 (Simulation time: 0 hr 3 min 53 sec) 
Heartbeat CPU 0 instructions: 60000001 cycles: 26858971 heartbeat IPC: 2.17821 cumulative IPC: 2.222 (Simulation time: 0 hr 4 min 40 sec) 
Heartbeat CPU 0 instructions: 70000004 cycles: 31367752 heartbeat IPC: 2.2179 cumulative IPC: 2.2214 (Simulation time: 0 hr 5 min 30 sec) 
Heartbeat CPU 0 instructions: 80000000 cycles: 35766468 heartbeat IPC: 2.27339 cumulative IPC: 2.22785 (Simulation time: 0 hr 6 min 18 sec) 
Heartbeat CPU 0 instructions: 90000002 cycles: 39825531 heartbeat IPC: 2.46362 cumulative IPC: 2.25207 (Simulation time: 0 hr 7 min 0 sec) 
Heartbeat CPU 0 instructions: 100000001 cycles: 44340833 heartbeat IPC: 2.21469 cumulative IPC: 2.24823 (Simulation time: 0 hr 7 min 46 sec) 
Heartbeat CPU 0 instructions: 110000004 cycles: 48604942 heartbeat IPC: 2.34516 cumulative IPC: 2.25679 (Simulation time: 0 hr 8 min 27 sec) 
Heartbeat CPU 0 instructions: 120000002 cycles: 52927405 heartbeat IPC: 2.3135 cumulative IPC: 2.26145 (Simulation time: 0 hr 9 min 8 sec) 
Heartbeat CPU 0 instructions: 130000004 cycles: 57528786 heartbeat IPC: 2.17326 cumulative IPC: 2.25436 (Simulation time: 0 hr 9 min 52 sec) 
Heartbeat CPU 0 instructions: 140000001 cycles: 61688082 heartbeat IPC: 2.40425 cumulative IPC: 2.26452 (Simulation time: 0 hr 10 min 32 sec) 
Heartbeat CPU 0 instructions: 150000000 cycles: 66301002 heartbeat IPC: 2.16782 cumulative IPC: 2.25776 (Simulation time: 0 hr 11 min 17 sec) 
Heartbeat CPU 0 instructions: 160000003 cycles: 70561121 heartbeat IPC: 2.34735 cumulative IPC: 2.26319 (Simulation time: 0 hr 11 min 57 sec) 
Heartbeat CPU 0 instructions: 170000001 cycles: 75261224 heartbeat IPC: 2.12761 cumulative IPC: 2.25469 (Simulation time: 0 hr 12 min 45 sec) 
Heartbeat CPU 0 instructions: 180000000 cycles: 79937209 heartbeat IPC: 2.13859 cumulative IPC: 2.24787 (Simulation time: 0 hr 13 min 33 sec) 
Heartbeat CPU 0 instructions: 190000003 cycles: 84242513 heartbeat IPC: 2.32272 cumulative IPC: 2.25171 (Simulation time: 0 hr 14 min 17 sec) 
Heartbeat CPU 0 instructions: 200000003 cycles: 88878332 heartbeat IPC: 2.15712 cumulative IPC: 2.24676 (Simulation time: 0 hr 15 min 6 sec) 
Heartbeat CPU 0 instructions: 210000001 cycles: 93307368 heartbeat IPC: 2.25783 cumulative IPC: 2.24729 (Simulation time: 0 hr 15 min 51 sec) 
Heartbeat CPU 0 instructions: 220000002 cycles: 97927739 heartbeat IPC: 2.16433 cumulative IPC: 2.24336 (Simulation time: 0 hr 16 min 39 sec) 
Heartbeat CPU 0 instructions: 230000001 cycles: 102121727 heartbeat IPC: 2.38437 cumulative IPC: 2.24917 (Simulation time: 0 hr 17 min 22 sec) 
Heartbeat CPU 0 instructions: 240000003 cycles: 106721625 heartbeat IPC: 2.17396 cumulative IPC: 2.24592 (Simulation time: 0 hr 18 min 9 sec) 
Heartbeat CPU 0 instructions: 250000001 cycles: 111024594 heartbeat IPC: 2.32398 cumulative IPC: 2.24895 (Simulation time: 0 hr 18 min 52 sec) 
Heartbeat CPU 0 instructions: 260000001 cycles: 115640484 heartbeat IPC: 2.16643 cumulative IPC: 2.24565 (Simulation time: 0 hr 19 min 38 sec) 
Heartbeat CPU 0 instructions: 270000001 cycles: 119698762 heartbeat IPC: 2.4641 cumulative IPC: 2.25307 (Simulation time: 0 hr 20 min 18 sec) 
Heartbeat CPU 0 instructions: 280000001 cycles: 124279191 heartbeat IPC: 2.1832 cumulative IPC: 2.25049 (Simulation time: 0 hr 21 min 4 sec) 
Heartbeat CPU 0 instructions: 290000003 cycles: 128423511 heartbeat IPC: 2.41294 cumulative IPC: 2.25575 (Simulation time: 0 hr 21 min 47 sec) 
Heartbeat CPU 0 instructions: 300000004 cycles: 133028628 heartbeat IPC: 2.1715 cumulative IPC: 2.25282 (Simulation time: 0 hr 22 min 37 sec) 
Heartbeat CPU 0 instructions: 310000003 cycles: 137073074 heartbeat IPC: 2.47253 cumulative IPC: 2.25932 (Simulation time: 0 hr 23 min 22 sec) 
Heartbeat CPU 0 instructions: 320000004 cycles: 141592616 heartbeat IPC: 2.21261 cumulative IPC: 2.25783 (Simulation time: 0 hr 24 min 10 sec) 
Heartbeat CPU 0 instructions: 330000002 cycles: 145872787 heartbeat IPC: 2.33635 cumulative IPC: 2.26014 (Simulation time: 0 hr 24 min 56 sec) 
Heartbeat CPU 0 instructions: 340000000 cycles: 150410347 heartbeat IPC: 2.20383 cumulative IPC: 2.25843 (Simulation time: 0 hr 25 min 45 sec) 
Heartbeat CPU 0 instructions: 350000000 cycles: 154711101 heartbeat IPC: 2.32517 cumulative IPC: 2.26029 (Simulation time: 0 hr 26 min 34 sec) 
Heartbeat CPU 0 instructions: 360000003 cycles: 159088658 heartbeat IPC: 2.28438 cumulative IPC: 2.26096 (Simulation time: 0 hr 27 min 21 sec) 
Heartbeat CPU 0 instructions: 370000001 cycles: 163200972 heartbeat IPC: 2.43172 cumulative IPC: 2.26527 (Simulation time: 0 hr 28 min 4 sec) 
Heartbeat CPU 0 instructions: 380000004 cycles: 167722488 heartbeat IPC: 2.21165 cumulative IPC: 2.26382 (Simulation time: 0 hr 28 min 57 sec) 
Heartbeat CPU 0 instructions: 390000000 cycles: 172069648 heartbeat IPC: 2.30035 cumulative IPC: 2.26474 (Simulation time: 0 hr 29 min 47 sec) 
Heartbeat CPU 0 instructions: 400000002 cycles: 176621593 heartbeat IPC: 2.19686 cumulative IPC: 2.26299 (Simulation time: 0 hr 30 min 38 sec) 
Heartbeat CPU 0 instructions: 410000001 cycles: 181283177 heartbeat IPC: 2.14519 cumulative IPC: 2.25996 (Simulation time: 0 hr 31 min 29 sec) 
Heartbeat CPU 0 instructions: 420000000 cycles: 185953026 heartbeat IPC: 2.1414 cumulative IPC: 2.25697 (Simulation time: 0 hr 32 min 17 sec) 
Heartbeat CPU 0 instructions: 430000001 cycles: 190656998 heartbeat IPC: 2.12586 cumulative IPC: 2.25373 (Simulation time: 0 hr 33 min 3 sec) 
Heartbeat CPU 0 instructions: 440000000 cycles: 195324594 heartbeat IPC: 2.14243 cumulative IPC: 2.25107 (Simulation time: 0 hr 33 min 54 sec) 
Heartbeat CPU 0 instructions: 450000001 cycles: 199883401 heartbeat IPC: 2.19356 cumulative IPC: 2.24976 (Simulation time: 0 hr 34 min 42 sec) 
Heartbeat CPU 0 instructions: 460000000 cycles: 204488467 heartbeat IPC: 2.17152 cumulative IPC: 2.24799 (Simulation time: 0 hr 35 min 28 sec) 
Heartbeat CPU 0 instructions: 470000001 cycles: 209103686 heartbeat IPC: 2.16674 cumulative IPC: 2.2462 (Simulation time: 0 hr 36 min 12 sec) 
Heartbeat CPU 0 instructions: 480000004 cycles: 213643904 heartbeat IPC: 2.20254 cumulative IPC: 2.24527 (Simulation time: 0 hr 37 min 0 sec) 
Heartbeat CPU 0 instructions: 490000003 cycles: 218213764 heartbeat IPC: 2.18825 cumulative IPC: 2.24407 (Simulation time: 0 hr 37 min 49 sec) 
Heartbeat CPU 0 instructions: 500000002 cycles: 222722000 heartbeat IPC: 2.21816 cumulative IPC: 2.24355 (Simulation time: 0 hr 38 min 32 sec) 
Heartbeat CPU 0 instructions: 510000001 cycles: 227347047 heartbeat IPC: 2.16214 cumulative IPC: 2.24189 (Simulation time: 0 hr 39 min 21 sec) 
Heartbeat CPU 0 instructions: 520000000 cycles: 231921887 heartbeat IPC: 2.18587 cumulative IPC: 2.24078 (Simulation time: 0 hr 40 min 8 sec) 
Heartbeat CPU 0 instructions: 530000003 cycles: 236457608 heartbeat IPC: 2.20472 cumulative IPC: 2.24009 (Simulation time: 0 hr 40 min 54 sec) 
Heartbeat CPU 0 instructions: 540000000 cycles: 240990068 heartbeat IPC: 2.20631 cumulative IPC: 2.23945 (Simulation time: 0 hr 41 min 38 sec) 
Heartbeat CPU 0 instructions: 550000000 cycles: 245557810 heartbeat IPC: 2.18927 cumulative IPC: 2.23852 (Simulation time: 0 hr 42 min 27 sec) 
Heartbeat CPU 0 instructions: 560000002 cycles: 250172868 heartbeat IPC: 2.16682 cumulative IPC: 2.23719 (Simulation time: 0 hr 43 min 14 sec) 
Heartbeat CPU 0 instructions: 570000004 cycles: 254773496 heartbeat IPC: 2.17362 cumulative IPC: 2.23604 (Simulation time: 0 hr 44 min 4 sec) 
Heartbeat CPU 0 instructions: 580000001 cycles: 259309594 heartbeat IPC: 2.20454 cumulative IPC: 2.23549 (Simulation time: 0 hr 44 min 53 sec) 
Heartbeat CPU 0 instructions: 590000003 cycles: 263830985 heartbeat IPC: 2.21171 cumulative IPC: 2.23508 (Simulation time: 0 hr 45 min 40 sec) 
Heartbeat CPU 0 instructions: 600000004 cycles: 268448173 heartbeat IPC: 2.16582 cumulative IPC: 2.23389 (Simulation time: 0 hr 46 min 29 sec) 
Heartbeat CPU 0 instructions: 610000002 cycles: 273104455 heartbeat IPC: 2.14764 cumulative IPC: 2.23242 (Simulation time: 0 hr 47 min 17 sec) 
Heartbeat CPU 0 instructions: 620000004 cycles: 277672763 heartbeat IPC: 2.18899 cumulative IPC: 2.2317 (Simulation time: 0 hr 48 min 3 sec) 
Heartbeat CPU 0 instructions: 630000002 cycles: 282242910 heartbeat IPC: 2.18811 cumulative IPC: 2.231 (Simulation time: 0 hr 48 min 50 sec) 
Heartbeat CPU 0 instructions: 640000004 cycles: 286793131 heartbeat IPC: 2.1977 cumulative IPC: 2.23047 (Simulation time: 0 hr 49 min 35 sec) 
Heartbeat CPU 0 instructions: 650000002 cycles: 291374282 heartbeat IPC: 2.18286 cumulative IPC: 2.22972 (Simulation time: 0 hr 50 min 22 sec) 
Heartbeat CPU 0 instructions: 660000000 cycles: 295890073 heartbeat IPC: 2.21445 cumulative IPC: 2.22949 (Simulation time: 0 hr 51 min 8 sec) 
Heartbeat CPU 0 instructions: 670000000 cycles: 300520137 heartbeat IPC: 2.1598 cumulative IPC: 2.22841 (Simulation time: 0 hr 51 min 56 sec) 
Heartbeat CPU 0 instructions: 680000002 cycles: 305217895 heartbeat IPC: 2.12868 cumulative IPC: 2.22687 (Simulation time: 0 hr 52 min 44 sec) 
Heartbeat CPU 0 instructions: 690000001 cycles: 309872665 heartbeat IPC: 2.14833 cumulative IPC: 2.22569 (Simulation time: 0 hr 53 min 31 sec) 
Heartbeat CPU 0 instructions: 700000001 cycles: 314459972 heartbeat IPC: 2.17993 cumulative IPC: 2.22503 (Simulation time: 0 hr 54 min 17 sec) 
Heartbeat CPU 0 instructions: 710000004 cycles: 319082417 heartbeat IPC: 2.16336 cumulative IPC: 2.22413 (Simulation time: 0 hr 55 min 3 sec) 
Heartbeat CPU 0 instructions: 720000002 cycles: 323599652 heartbeat IPC: 2.21374 cumulative IPC: 2.22399 (Simulation time: 0 hr 55 min 48 sec) 
Heartbeat CPU 0 instructions: 730000000 cycles: 328213136 heartbeat IPC: 2.16756 cumulative IPC: 2.22319 (Simulation time: 0 hr 56 min 36 sec) 
Heartbeat CPU 0 instructions: 740000000 cycles: 332754759 heartbeat IPC: 2.20186 cumulative IPC: 2.2229 (Simulation time: 0 hr 57 min 22 sec) 
Heartbeat CPU 0 instructions: 750000004 cycles: 337290466 heartbeat IPC: 2.20473 cumulative IPC: 2.22266 (Simulation time: 0 hr 58 min 9 sec) 
Heartbeat CPU 0 instructions: 760000001 cycles: 341806774 heartbeat IPC: 2.2142 cumulative IPC: 2.22254 (Simulation time: 0 hr 58 min 56 sec) 
Heartbeat CPU 0 instructions: 770000003 cycles: 346305064 heartbeat IPC: 2.22307 cumulative IPC: 2.22255 (Simulation time: 0 hr 59 min 43 sec) 
Heartbeat CPU 0 instructions: 780000003 cycles: 350865168 heartbeat IPC: 2.19293 cumulative IPC: 2.22217 (Simulation time: 1 hr 0 min 29 sec) 
Heartbeat CPU 0 instructions: 790000004 cycles: 355349030 heartbeat IPC: 2.23022 cumulative IPC: 2.22227 (Simulation time: 1 hr 1 min 16 sec) 
Heartbeat CPU 0 instructions: 800000000 cycles: 359904424 heartbeat IPC: 2.1952 cumulative IPC: 2.22192 (Simulation time: 1 hr 2 min 2 sec) 
Heartbeat CPU 0 instructions: 810000001 cycles: 364580481 heartbeat IPC: 2.13855 cumulative IPC: 2.22085 (Simulation time: 1 hr 2 min 49 sec) 
Heartbeat CPU 0 instructions: 820000000 cycles: 369085305 heartbeat IPC: 2.21984 cumulative IPC: 2.22084 (Simulation time: 1 hr 3 min 35 sec) 
Heartbeat CPU 0 instructions: 830000004 cycles: 373520385 heartbeat IPC: 2.25475 cumulative IPC: 2.22125 (Simulation time: 1 hr 4 min 19 sec) 
Heartbeat CPU 0 instructions: 840000004 cycles: 378133249 heartbeat IPC: 2.16785 cumulative IPC: 2.22059 (Simulation time: 1 hr 5 min 5 sec) 
Heartbeat CPU 0 instructions: 850000002 cycles: 382714118 heartbeat IPC: 2.18299 cumulative IPC: 2.22014 (Simulation time: 1 hr 5 min 50 sec) 
Heartbeat CPU 0 instructions: 860000000 cycles: 387353631 heartbeat IPC: 2.1554 cumulative IPC: 2.21937 (Simulation time: 1 hr 6 min 34 sec) 
Heartbeat CPU 0 instructions: 870000000 cycles: 391965303 heartbeat IPC: 2.16841 cumulative IPC: 2.21877 (Simulation time: 1 hr 7 min 18 sec) 
Heartbeat CPU 0 instructions: 880000001 cycles: 396535936 heartbeat IPC: 2.18788 cumulative IPC: 2.21841 (Simulation time: 1 hr 8 min 1 sec) 
Heartbeat CPU 0 instructions: 890000000 cycles: 401111790 heartbeat IPC: 2.18538 cumulative IPC: 2.21803 (Simulation time: 1 hr 8 min 43 sec) 
Heartbeat CPU 0 instructions: 900000001 cycles: 405617157 heartbeat IPC: 2.21958 cumulative IPC: 2.21805 (Simulation time: 1 hr 9 min 22 sec) 
Heartbeat CPU 0 instructions: 910000003 cycles: 410119290 heartbeat IPC: 2.22117 cumulative IPC: 2.21808 (Simulation time: 1 hr 10 min 4 sec) 
Heartbeat CPU 0 instructions: 920000000 cycles: 414661700 heartbeat IPC: 2.20147 cumulative IPC: 2.2179 (Simulation time: 1 hr 10 min 48 sec) 
Heartbeat CPU 0 instructions: 930000001 cycles: 419090496 heartbeat IPC: 2.25795 cumulative IPC: 2.21833 (Simulation time: 1 hr 11 min 30 sec) 
Heartbeat CPU 0 instructions: 940000000 cycles: 423581498 heartbeat IPC: 2.22667 cumulative IPC: 2.21841 (Simulation time: 1 hr 12 min 14 sec) 
Heartbeat CPU 0 instructions: 950000001 cycles: 428113425 heartbeat IPC: 2.20657 cumulative IPC: 2.21829 (Simulation time: 1 hr 12 min 56 sec) 
Heartbeat CPU 0 instructions: 960000000 cycles: 432545054 heartbeat IPC: 2.25651 cumulative IPC: 2.21868 (Simulation time: 1 hr 13 min 38 sec) 
Heartbeat CPU 0 instructions: 970000001 cycles: 437106445 heartbeat IPC: 2.19231 cumulative IPC: 2.21841 (Simulation time: 1 hr 14 min 19 sec) 
Heartbeat CPU 0 instructions: 980000001 cycles: 441642135 heartbeat IPC: 2.20474 cumulative IPC: 2.21827 (Simulation time: 1 hr 14 min 59 sec) 
Heartbeat CPU 0 instructions: 990000003 cycles: 446134613 heartbeat IPC: 2.22594 cumulative IPC: 2.21834 (Simulation time: 1 hr 15 min 38 sec) 
Heartbeat CPU 0 instructions: 1000000000 cycles: 450739830 heartbeat IPC: 2.17145 cumulative IPC: 2.21786 (Simulation time: 1 hr 16 min 15 sec) 
Finished CPU 0 instructions: 1000000000 cycles: 450861399 cumulative IPC: 2.21798 (Simulation time: 1 hr 16 min 19 sec) 

ChampSim completed all CPUs

Region of Interest Statistics

CPU 0 cumulative IPC: 2.21798 instructions: 1000000000 cycles: 450861399
cpu0_DTLB TOTAL     ACCESS:  207260106  HIT:  207203639  MISS:      56467
cpu0_DTLB LOAD      ACCESS:  157983638  HIT:  157928189  MISS:      55449
cpu0_DTLB RFO       ACCESS:   49276468  HIT:   49275450  MISS:       1018
cpu0_DTLB PREFETCH  ACCESS:          0  HIT:          0  MISS:          0
cpu0_DTLB WRITEBACK ACCESS:          0  HIT:          0  MISS:          0
cpu0_DTLB TRANSLATION ACCESS:          0  HIT:          0  MISS:          0
cpu0_DTLB PREFETCH  REQUESTED:          0  ISSUED:          0  USEFUL:          0  USELESS:          0
cpu0_DTLB AVERAGE MISS LATENCY: 13.0014 cycles
cpu0_ITLB TOTAL     ACCESS:   19636147  HIT:   19636145  MISS:          2
cpu0_ITLB LOAD      ACCESS:   19636147  HIT:   19636145  MISS:          2
cpu0_ITLB RFO       ACCESS:          0  HIT:          0  MISS:          0
cpu0_ITLB PREFETCH  ACCESS:          0  HIT:          0  MISS:          0
cpu0_ITLB WRITEBACK ACCESS:          0  HIT:          0  MISS:          0
cpu0_ITLB TRANSLATION ACCESS:          0  HIT:          0  MISS:          0
cpu0_ITLB PREFETCH  REQUESTED:          0  ISSUED:          0  USEFUL:          0  USELESS:          0
cpu0_ITLB AVERAGE MISS LATENCY: 222.5 cycles
cpu0_L1I TOTAL     ACCESS:      48716  HIT:      48645  MISS:         71
cpu0_L1I LOAD      ACCESS:      48716  HIT:      48645  MISS:         71
cpu0_L1I RFO       ACCESS:          0  HIT:          0  MISS:          0
cpu0_L1I PREFETCH  ACCESS:          0  HIT:          0  MISS:          0
cpu0_L1I WRITEBACK ACCESS:          0  HIT:          0  MISS:          0
cpu0_L1I TRANSLATION ACCESS:          0  HIT:          0  MISS:          0
cpu0_L1I PREFETCH  REQUESTED:          0  ISSUED:          0  USEFUL:          0  USELESS:          0
cpu0_L1I AVERAGE MISS LATENCY: 323.268 cycles
cpu0_STLB TOTAL     ACCESS:      56469  HIT:      55394  MISS:       1075
cpu0_STLB LOAD      ACCESS:      55451  HIT:      54378  MISS:       1073
cpu0_STLB RFO       ACCESS:       1018  HIT:       1016  MISS:          2
cpu0_STLB PREFETCH  ACCESS:          0  HIT:          0  MISS:          0
cpu0_STLB WRITEBACK ACCESS:          0  HIT:          0  MISS:          0
cpu0_STLB TRANSLATION ACCESS:          0  HIT:          0  MISS:          0
cpu0_STLB PREFETCH  REQUESTED:          0  ISSUED:          0  USEFUL:          0  USELESS:          0
cpu0_STLB AVERAGE MISS LATENCY: 210.574 cycles
cpu0_L1D TOTAL     ACCESS:  395214965  HIT:  383768658  MISS:   11446307
cpu0_L1D LOAD      ACCESS:  162531899  HIT:  156940410  MISS:    5591489
cpu0_L1D RFO       ACCESS:   75540929  HIT:   75275636  MISS:     265293
cpu0_L1D PREFETCH  ACCESS:  157141063  HIT:  151551992  MISS:    5589071
cpu0_L1D WRITEBACK ACCESS:          0  HIT:          0  MISS:          0
cpu0_L1D TRANSLATION ACCESS:       1074  HIT:        620  MISS:        454
cpu0_L1D PREFETCH  REQUESTED:  165169407  ISSUED:  163229739  USEFUL:    5302839  USELESS:    1079180
cpu0_L1D AVERAGE MISS LATENCY: 13.8424 cycles
cpu0_L2C TOTAL     ACCESS:   15311665  HIT:   15063312  MISS:     248353
cpu0_L2C LOAD      ACCESS:    4798266  HIT:    4722887  MISS:      75379
cpu0_L2C RFO       ACCESS:     262544  HIT:     261902  MISS:        642
cpu0_L2C PREFETCH  ACCESS:    7854024  HIT:    7682016  MISS:     172008
cpu0_L2C WRITEBACK ACCESS:    2396377  HIT:    2396125  MISS:        252
cpu0_L2C TRANSLATION ACCESS:        454  HIT:        382  MISS:         72
cpu0_L2C PREFETCH  REQUESTED:    1727489  ISSUED:    1474268  USEFUL:      21957  USELESS:      10320
cpu0_L2C AVERAGE MISS LATENCY: 116.163 cycles
LLC TOTAL     ACCESS:     311787  HIT:     238606  MISS:      73181
LLC LOAD      ACCESS:      75378  HIT:      54652  MISS:      20726
LLC RFO       ACCESS:        642  HIT:        620  MISS:         22
LLC PREFETCH  ACCESS:     172013  HIT:     119699  MISS:      52314
LLC WRITEBACK ACCESS:      63682  HIT:      63569  MISS:        113
LLC TRANSLATION ACCESS:         72  HIT:         66  MISS:          6
LLC PREFETCH  REQUESTED:          0  ISSUED:          0  USEFUL:          0  USELESS:          0
LLC AVERAGE MISS LATENCY: 302.769 cycles
OPTgen accesses: 1293
OPTgen hits: 2073
OPTgen hit rate: 160.325



DRAM Statistics
 CHANNEL 0
 RQ ROW_BUFFER_HIT:      14309  ROW_BUFFER_MISS:      58756
 DBUS AVG_CONGESTED_CYCLE:     3.7214
 WQ ROW_BUFFER_HIT:       1117  ROW_BUFFER_MISS:      10255  FULL:          0


CPU 0 Branch Prediction Accuracy: 95.6107% MPKI: 1.80642 Average ROB Occupancy at Mispredict: 69.14
Branch type MPKI
BRANCH_DIRECT_JUMP: 5e-06
BRANCH_INDIRECT: 0
BRANCH_CONDITIONAL: 1.80641
BRANCH_DIRECT_CALL: 4e-06
BRANCH_INDIRECT_CALL: 0
BRANCH_RETURN: 6e-06

