
*** ChampSim Multicore Out-of-Order Simulator ***

Warmup Instructions: 1000000
Simulation Instructions: 1000000000
Number of CPUs: 1
Off-chip DRAM Size: 4 GiB Channels: 1 Width: 64-bit Data Rate: 3200 MT/s

VirtualMemory physical capacity: 8588881920 num_ppages: 2096895
VirtualMemory page size: 4096 log2_page_size: 12

CPU 0 runs tracer/pin/traces/spec2k6/465.tonto-1914B.champsimtrace.xz
Basic BTB sets: 1024 ways: 8 indirect buffer size: 4096 RAS size: 64
cpu0_L1D next line prefetcher
cpu0_L2C IP-based stride prefetcher
Initialize Hawkeye state
WARNING: The extended signature CACHE::prefetch_line(ip, base_addr, pf_addr, fill_this_level, prefetch_metadata) is deprecated.
WARNING: Use CACHE::prefetch_line(pf_addr, fill_this_level, prefetch_metadata) instead.

Warmup complete CPU 0 instructions: 1000004 cycles: 285486 (Simulation time: 0 hr 0 min 3 sec) 

Heartbeat CPU 0 instructions: 10000000 cycles: 6296178 heartbeat IPC: 1.58827 cumulative IPC: 1.49733 (Simulation time: 0 hr 0 min 54 sec) 
Heartbeat CPU 0 instructions: 20000004 cycles: 12651519 heartbeat IPC: 1.57348 cumulative IPC: 1.53647 (Simulation time: 0 hr 1 min 52 sec) 
Heartbeat CPU 0 instructions: 30000003 cycles: 18448275 heartbeat IPC: 1.7251 cumulative IPC: 1.59667 (Simulation time: 0 hr 2 min 43 sec) 
Heartbeat CPU 0 instructions: 40000002 cycles: 24187318 heartbeat IPC: 1.74245 cumulative IPC: 1.63167 (Simulation time: 0 hr 3 min 33 sec) 
Heartbeat CPU 0 instructions: 50000002 cycles: 30371332 heartbeat IPC: 1.61707 cumulative IPC: 1.62867 (Simulation time: 0 hr 4 min 25 sec) 
Heartbeat CPU 0 instructions: 60000000 cycles: 36650273 heartbeat IPC: 1.59262 cumulative IPC: 1.62245 (Simulation time: 0 hr 5 min 21 sec) 
Heartbeat CPU 0 instructions: 70000002 cycles: 42791625 heartbeat IPC: 1.62831 cumulative IPC: 1.62329 (Simulation time: 0 hr 6 min 18 sec) 
Heartbeat CPU 0 instructions: 80000000 cycles: 48798330 heartbeat IPC: 1.66481 cumulative IPC: 1.62843 (Simulation time: 0 hr 7 min 12 sec) 
Heartbeat CPU 0 instructions: 90000002 cycles: 54546469 heartbeat IPC: 1.73969 cumulative IPC: 1.64022 (Simulation time: 0 hr 8 min 3 sec) 
Heartbeat CPU 0 instructions: 100000003 cycles: 60310496 heartbeat IPC: 1.7349 cumulative IPC: 1.64931 (Simulation time: 0 hr 8 min 54 sec) 
Heartbeat CPU 0 instructions: 110000000 cycles: 66259364 heartbeat IPC: 1.68099 cumulative IPC: 1.65217 (Simulation time: 0 hr 9 min 46 sec) 
Heartbeat CPU 0 instructions: 120000002 cycles: 72829492 heartbeat IPC: 1.52204 cumulative IPC: 1.64038 (Simulation time: 0 hr 10 min 48 sec) 
Heartbeat CPU 0 instructions: 130000003 cycles: 79197242 heartbeat IPC: 1.57041 cumulative IPC: 1.63474 (Simulation time: 0 hr 11 min 47 sec) 
Heartbeat CPU 0 instructions: 140000004 cycles: 85457398 heartbeat IPC: 1.5974 cumulative IPC: 1.63199 (Simulation time: 0 hr 12 min 50 sec) 
Heartbeat CPU 0 instructions: 150000001 cycles: 91585646 heartbeat IPC: 1.63179 cumulative IPC: 1.63198 (Simulation time: 0 hr 13 min 52 sec) 
Heartbeat CPU 0 instructions: 160000002 cycles: 97284213 heartbeat IPC: 1.75483 cumulative IPC: 1.6392 (Simulation time: 0 hr 14 min 47 sec) 
Heartbeat CPU 0 instructions: 170000000 cycles: 103055906 heartbeat IPC: 1.73259 cumulative IPC: 1.64444 (Simulation time: 0 hr 15 min 42 sec) 
Heartbeat CPU 0 instructions: 180000004 cycles: 108772105 heartbeat IPC: 1.74941 cumulative IPC: 1.64997 (Simulation time: 0 hr 16 min 35 sec) 
Heartbeat CPU 0 instructions: 190000002 cycles: 114476203 heartbeat IPC: 1.75313 cumulative IPC: 1.65513 (Simulation time: 0 hr 17 min 30 sec) 
Heartbeat CPU 0 instructions: 200000000 cycles: 120733007 heartbeat IPC: 1.59826 cumulative IPC: 1.65217 (Simulation time: 0 hr 18 min 28 sec) 
Heartbeat CPU 0 instructions: 210000001 cycles: 127161189 heartbeat IPC: 1.55565 cumulative IPC: 1.64728 (Simulation time: 0 hr 19 min 31 sec) 
Heartbeat CPU 0 instructions: 220000004 cycles: 133398974 heartbeat IPC: 1.60313 cumulative IPC: 1.64521 (Simulation time: 0 hr 20 min 31 sec) 
Heartbeat CPU 0 instructions: 230000003 cycles: 139349560 heartbeat IPC: 1.68051 cumulative IPC: 1.64672 (Simulation time: 0 hr 21 min 25 sec) 
Heartbeat CPU 0 instructions: 240000000 cycles: 145265086 heartbeat IPC: 1.69047 cumulative IPC: 1.64851 (Simulation time: 0 hr 22 min 22 sec) 
Heartbeat CPU 0 instructions: 250000001 cycles: 151266126 heartbeat IPC: 1.66638 cumulative IPC: 1.64922 (Simulation time: 0 hr 23 min 18 sec) 
Heartbeat CPU 0 instructions: 260000002 cycles: 157215426 heartbeat IPC: 1.68087 cumulative IPC: 1.65042 (Simulation time: 0 hr 24 min 18 sec) 
Heartbeat CPU 0 instructions: 270000004 cycles: 163086175 heartbeat IPC: 1.70336 cumulative IPC: 1.65233 (Simulation time: 0 hr 25 min 14 sec) 
Heartbeat CPU 0 instructions: 280000003 cycles: 169183549 heartbeat IPC: 1.64005 cumulative IPC: 1.65188 (Simulation time: 0 hr 26 min 10 sec) 
Heartbeat CPU 0 instructions: 290000004 cycles: 175226899 heartbeat IPC: 1.65471 cumulative IPC: 1.65198 (Simulation time: 0 hr 27 min 8 sec) 
Heartbeat CPU 0 instructions: 300000004 cycles: 181103724 heartbeat IPC: 1.7016 cumulative IPC: 1.65359 (Simulation time: 0 hr 28 min 6 sec) 
Heartbeat CPU 0 instructions: 310000002 cycles: 187011838 heartbeat IPC: 1.69259 cumulative IPC: 1.65483 (Simulation time: 0 hr 29 min 1 sec) 
Heartbeat CPU 0 instructions: 320000002 cycles: 193078438 heartbeat IPC: 1.64837 cumulative IPC: 1.65462 (Simulation time: 0 hr 29 min 58 sec) 
Heartbeat CPU 0 instructions: 330000001 cycles: 199122289 heartbeat IPC: 1.65457 cumulative IPC: 1.65462 (Simulation time: 0 hr 30 min 55 sec) 
Heartbeat CPU 0 instructions: 340000000 cycles: 205014496 heartbeat IPC: 1.69716 cumulative IPC: 1.65585 (Simulation time: 0 hr 31 min 51 sec) 
Heartbeat CPU 0 instructions: 350000004 cycles: 210963297 heartbeat IPC: 1.68101 cumulative IPC: 1.65656 (Simulation time: 0 hr 32 min 49 sec) 
Heartbeat CPU 0 instructions: 360000002 cycles: 216860568 heartbeat IPC: 1.6957 cumulative IPC: 1.65762 (Simulation time: 0 hr 33 min 42 sec) 
Heartbeat CPU 0 instructions: 370000001 cycles: 222878819 heartbeat IPC: 1.66161 cumulative IPC: 1.65773 (Simulation time: 0 hr 34 min 40 sec) 
Heartbeat CPU 0 instructions: 380000004 cycles: 228741256 heartbeat IPC: 1.70578 cumulative IPC: 1.65896 (Simulation time: 0 hr 35 min 34 sec) 
Heartbeat CPU 0 instructions: 390000001 cycles: 234715989 heartbeat IPC: 1.67371 cumulative IPC: 1.65934 (Simulation time: 0 hr 36 min 28 sec) 
Heartbeat CPU 0 instructions: 400000000 cycles: 240807228 heartbeat IPC: 1.6417 cumulative IPC: 1.65889 (Simulation time: 0 hr 37 min 23 sec) 
Heartbeat CPU 0 instructions: 410000000 cycles: 246714122 heartbeat IPC: 1.69294 cumulative IPC: 1.65971 (Simulation time: 0 hr 38 min 19 sec) 
Heartbeat CPU 0 instructions: 420000001 cycles: 252566463 heartbeat IPC: 1.70872 cumulative IPC: 1.66085 (Simulation time: 0 hr 39 min 10 sec) 
Heartbeat CPU 0 instructions: 430000003 cycles: 258535966 heartbeat IPC: 1.67518 cumulative IPC: 1.66118 (Simulation time: 0 hr 40 min 2 sec) 
Heartbeat CPU 0 instructions: 440000001 cycles: 264608013 heartbeat IPC: 1.64689 cumulative IPC: 1.66085 (Simulation time: 0 hr 40 min 56 sec) 
Heartbeat CPU 0 instructions: 450000001 cycles: 270549006 heartbeat IPC: 1.68322 cumulative IPC: 1.66134 (Simulation time: 0 hr 41 min 51 sec) 
Heartbeat CPU 0 instructions: 460000003 cycles: 276175454 heartbeat IPC: 1.77732 cumulative IPC: 1.66371 (Simulation time: 0 hr 42 min 42 sec) 
Heartbeat CPU 0 instructions: 470000003 cycles: 282211665 heartbeat IPC: 1.65667 cumulative IPC: 1.66356 (Simulation time: 0 hr 43 min 39 sec) 
Heartbeat CPU 0 instructions: 480000003 cycles: 287990481 heartbeat IPC: 1.73046 cumulative IPC: 1.6649 (Simulation time: 0 hr 44 min 36 sec) 
Heartbeat CPU 0 instructions: 490000003 cycles: 293629475 heartbeat IPC: 1.77337 cumulative IPC: 1.66698 (Simulation time: 0 hr 45 min 28 sec) 
Heartbeat CPU 0 instructions: 500000001 cycles: 299518973 heartbeat IPC: 1.69794 cumulative IPC: 1.66759 (Simulation time: 0 hr 46 min 20 sec) 
Heartbeat CPU 0 instructions: 510000000 cycles: 305546663 heartbeat IPC: 1.65901 cumulative IPC: 1.66742 (Simulation time: 0 hr 47 min 15 sec) 
Heartbeat CPU 0 instructions: 520000001 cycles: 311432100 heartbeat IPC: 1.69911 cumulative IPC: 1.66802 (Simulation time: 0 hr 48 min 13 sec) 
Heartbeat CPU 0 instructions: 530000000 cycles: 317133630 heartbeat IPC: 1.75391 cumulative IPC: 1.66957 (Simulation time: 0 hr 49 min 9 sec) 
Heartbeat CPU 0 instructions: 540000004 cycles: 322817527 heartbeat IPC: 1.75936 cumulative IPC: 1.67115 (Simulation time: 0 hr 50 min 0 sec) 
Heartbeat CPU 0 instructions: 550000001 cycles: 328617862 heartbeat IPC: 1.72404 cumulative IPC: 1.67209 (Simulation time: 0 hr 50 min 53 sec) 
Heartbeat CPU 0 instructions: 560000002 cycles: 334766865 heartbeat IPC: 1.62628 cumulative IPC: 1.67124 (Simulation time: 0 hr 51 min 51 sec) 
Heartbeat CPU 0 instructions: 570000002 cycles: 340802188 heartbeat IPC: 1.65691 cumulative IPC: 1.67099 (Simulation time: 0 hr 52 min 46 sec) 
Heartbeat CPU 0 instructions: 580000004 cycles: 346650575 heartbeat IPC: 1.70987 cumulative IPC: 1.67165 (Simulation time: 0 hr 53 min 41 sec) 
Heartbeat CPU 0 instructions: 590000001 cycles: 352473429 heartbeat IPC: 1.71737 cumulative IPC: 1.6724 (Simulation time: 0 hr 54 min 37 sec) 
Heartbeat CPU 0 instructions: 600000004 cycles: 358105907 heartbeat IPC: 1.77542 cumulative IPC: 1.67402 (Simulation time: 0 hr 55 min 30 sec) 
Heartbeat CPU 0 instructions: 610000001 cycles: 363937599 heartbeat IPC: 1.71477 cumulative IPC: 1.67468 (Simulation time: 0 hr 56 min 20 sec) 
Heartbeat CPU 0 instructions: 620000000 cycles: 369673155 heartbeat IPC: 1.74351 cumulative IPC: 1.67575 (Simulation time: 0 hr 57 min 9 sec) 
Heartbeat CPU 0 instructions: 630000002 cycles: 375584405 heartbeat IPC: 1.69169 cumulative IPC: 1.676 (Simulation time: 0 hr 57 min 59 sec) 
Heartbeat CPU 0 instructions: 640000004 cycles: 381752027 heartbeat IPC: 1.62137 cumulative IPC: 1.67511 (Simulation time: 0 hr 58 min 52 sec) 
Heartbeat CPU 0 instructions: 650000002 cycles: 387606902 heartbeat IPC: 1.70798 cumulative IPC: 1.67561 (Simulation time: 0 hr 59 min 43 sec) 
Heartbeat CPU 0 instructions: 660000002 cycles: 393481609 heartbeat IPC: 1.70221 cumulative IPC: 1.67601 (Simulation time: 1 hr 0 min 35 sec) 
Heartbeat CPU 0 instructions: 670000003 cycles: 399220532 heartbeat IPC: 1.74249 cumulative IPC: 1.67696 (Simulation time: 1 hr 1 min 25 sec) 
Heartbeat CPU 0 instructions: 680000001 cycles: 405174009 heartbeat IPC: 1.67969 cumulative IPC: 1.677 (Simulation time: 1 hr 2 min 17 sec) 
Heartbeat CPU 0 instructions: 690000000 cycles: 410920104 heartbeat IPC: 1.74031 cumulative IPC: 1.67789 (Simulation time: 1 hr 3 min 11 sec) 
Heartbeat CPU 0 instructions: 700000003 cycles: 416586295 heartbeat IPC: 1.76485 cumulative IPC: 1.67907 (Simulation time: 1 hr 4 min 0 sec) 
Heartbeat CPU 0 instructions: 710000003 cycles: 422551444 heartbeat IPC: 1.6764 cumulative IPC: 1.67904 (Simulation time: 1 hr 4 min 51 sec) 
Heartbeat CPU 0 instructions: 720000003 cycles: 428522059 heartbeat IPC: 1.67487 cumulative IPC: 1.67898 (Simulation time: 1 hr 5 min 43 sec) 
Heartbeat CPU 0 instructions: 730000000 cycles: 434412406 heartbeat IPC: 1.69769 cumulative IPC: 1.67923 (Simulation time: 1 hr 6 min 36 sec) 
Heartbeat CPU 0 instructions: 740000003 cycles: 440055115 heartbeat IPC: 1.7722 cumulative IPC: 1.68043 (Simulation time: 1 hr 7 min 28 sec) 
Heartbeat CPU 0 instructions: 750000000 cycles: 445830394 heartbeat IPC: 1.73152 cumulative IPC: 1.68109 (Simulation time: 1 hr 8 min 18 sec) 
Heartbeat CPU 0 instructions: 760000000 cycles: 451603855 heartbeat IPC: 1.73206 cumulative IPC: 1.68174 (Simulation time: 1 hr 9 min 8 sec) 
Heartbeat CPU 0 instructions: 770000000 cycles: 457753409 heartbeat IPC: 1.62613 cumulative IPC: 1.68099 (Simulation time: 1 hr 10 min 1 sec) 
Heartbeat CPU 0 instructions: 780000000 cycles: 463744033 heartbeat IPC: 1.66928 cumulative IPC: 1.68084 (Simulation time: 1 hr 10 min 54 sec) 
Heartbeat CPU 0 instructions: 790000001 cycles: 469620766 heartbeat IPC: 1.70163 cumulative IPC: 1.6811 (Simulation time: 1 hr 11 min 49 sec) 
Heartbeat CPU 0 instructions: 800000000 cycles: 475365765 heartbeat IPC: 1.74064 cumulative IPC: 1.68182 (Simulation time: 1 hr 12 min 42 sec) 
Heartbeat CPU 0 instructions: 810000000 cycles: 481153432 heartbeat IPC: 1.72781 cumulative IPC: 1.68237 (Simulation time: 1 hr 13 min 35 sec) 
Heartbeat CPU 0 instructions: 820000002 cycles: 486790736 heartbeat IPC: 1.7739 cumulative IPC: 1.68344 (Simulation time: 1 hr 14 min 23 sec) 
Heartbeat CPU 0 instructions: 830000000 cycles: 492605347 heartbeat IPC: 1.71981 cumulative IPC: 1.68386 (Simulation time: 1 hr 15 min 13 sec) 
Heartbeat CPU 0 instructions: 840000001 cycles: 498553191 heartbeat IPC: 1.68128 cumulative IPC: 1.68383 (Simulation time: 1 hr 16 min 6 sec) 
Heartbeat CPU 0 instructions: 850000004 cycles: 504705218 heartbeat IPC: 1.62548 cumulative IPC: 1.68312 (Simulation time: 1 hr 17 min 3 sec) 
Heartbeat CPU 0 instructions: 860000002 cycles: 510528891 heartbeat IPC: 1.71713 cumulative IPC: 1.68351 (Simulation time: 1 hr 17 min 55 sec) 
Heartbeat CPU 0 instructions: 870000000 cycles: 516730842 heartbeat IPC: 1.6124 cumulative IPC: 1.68266 (Simulation time: 1 hr 18 min 53 sec) 
Heartbeat CPU 0 instructions: 880000003 cycles: 522345948 heartbeat IPC: 1.78091 cumulative IPC: 1.68371 (Simulation time: 1 hr 19 min 47 sec) 
Heartbeat CPU 0 instructions: 890000001 cycles: 528287784 heartbeat IPC: 1.68298 cumulative IPC: 1.6837 (Simulation time: 1 hr 20 min 39 sec) 
Heartbeat CPU 0 instructions: 900000004 cycles: 534403189 heartbeat IPC: 1.63522 cumulative IPC: 1.68315 (Simulation time: 1 hr 21 min 38 sec) 
Heartbeat CPU 0 instructions: 910000002 cycles: 540367416 heartbeat IPC: 1.67666 cumulative IPC: 1.68308 (Simulation time: 1 hr 22 min 35 sec) 
Heartbeat CPU 0 instructions: 920000000 cycles: 546021380 heartbeat IPC: 1.76867 cumulative IPC: 1.68396 (Simulation time: 1 hr 23 min 33 sec) 
Heartbeat CPU 0 instructions: 930000002 cycles: 551809278 heartbeat IPC: 1.72774 cumulative IPC: 1.68442 (Simulation time: 1 hr 24 min 24 sec) 
Heartbeat CPU 0 instructions: 940000000 cycles: 557672461 heartbeat IPC: 1.70556 cumulative IPC: 1.68465 (Simulation time: 1 hr 25 min 15 sec) 
Heartbeat CPU 0 instructions: 950000001 cycles: 563878494 heartbeat IPC: 1.61134 cumulative IPC: 1.68384 (Simulation time: 1 hr 26 min 12 sec) 
Heartbeat CPU 0 instructions: 960000002 cycles: 569923577 heartbeat IPC: 1.65424 cumulative IPC: 1.68353 (Simulation time: 1 hr 27 min 7 sec) 
Heartbeat CPU 0 instructions: 970000004 cycles: 575824334 heartbeat IPC: 1.6947 cumulative IPC: 1.68364 (Simulation time: 1 hr 28 min 3 sec) 
Heartbeat CPU 0 instructions: 980000004 cycles: 581717615 heartbeat IPC: 1.69685 cumulative IPC: 1.68377 (Simulation time: 1 hr 28 min 59 sec) 
Heartbeat CPU 0 instructions: 990000003 cycles: 587374893 heartbeat IPC: 1.76763 cumulative IPC: 1.68458 (Simulation time: 1 hr 29 min 54 sec) 
Heartbeat CPU 0 instructions: 1000000000 cycles: 593104837 heartbeat IPC: 1.74522 cumulative IPC: 1.68517 (Simulation time: 1 hr 30 min 46 sec) 
Finished CPU 0 instructions: 1000000003 cycles: 593356987 cumulative IPC: 1.68533 (Simulation time: 1 hr 30 min 51 sec) 

ChampSim completed all CPUs

Region of Interest Statistics

CPU 0 cumulative IPC: 1.68533 instructions: 1000000003 cycles: 593356987
cpu0_DTLB TOTAL     ACCESS:  229189881  HIT:  228984086  MISS:     205795
cpu0_DTLB LOAD      ACCESS:  177725157  HIT:  177550494  MISS:     174663
cpu0_DTLB RFO       ACCESS:   51464724  HIT:   51433592  MISS:      31132
cpu0_DTLB PREFETCH  ACCESS:          0  HIT:          0  MISS:          0
cpu0_DTLB WRITEBACK ACCESS:          0  HIT:          0  MISS:          0
cpu0_DTLB TRANSLATION ACCESS:          0  HIT:          0  MISS:          0
cpu0_DTLB PREFETCH  REQUESTED:          0  ISSUED:          0  USEFUL:          0  USELESS:          0
cpu0_DTLB AVERAGE MISS LATENCY: 9.53367 cycles
cpu0_ITLB TOTAL     ACCESS:   67930411  HIT:   67872038  MISS:      58373
cpu0_ITLB LOAD      ACCESS:   67930411  HIT:   67872038  MISS:      58373
cpu0_ITLB RFO       ACCESS:          0  HIT:          0  MISS:          0
cpu0_ITLB PREFETCH  ACCESS:          0  HIT:          0  MISS:          0
cpu0_ITLB WRITEBACK ACCESS:          0  HIT:          0  MISS:          0
cpu0_ITLB TRANSLATION ACCESS:          0  HIT:          0  MISS:          0
cpu0_ITLB PREFETCH  REQUESTED:          0  ISSUED:          0  USEFUL:          0  USELESS:          0
cpu0_ITLB AVERAGE MISS LATENCY: 9.11399 cycles
cpu0_L1I TOTAL     ACCESS:   26593326  HIT:   25071095  MISS:    1522231
cpu0_L1I LOAD      ACCESS:   26593326  HIT:   25071095  MISS:    1522231
cpu0_L1I RFO       ACCESS:          0  HIT:          0  MISS:          0
cpu0_L1I PREFETCH  ACCESS:          0  HIT:          0  MISS:          0
cpu0_L1I WRITEBACK ACCESS:          0  HIT:          0  MISS:          0
cpu0_L1I TRANSLATION ACCESS:          0  HIT:          0  MISS:          0
cpu0_L1I PREFETCH  REQUESTED:          0  ISSUED:          0  USEFUL:          0  USELESS:          0
cpu0_L1I AVERAGE MISS LATENCY: 17.4739 cycles
cpu0_STLB TOTAL     ACCESS:     264168  HIT:     263679  MISS:        489
cpu0_STLB LOAD      ACCESS:     233036  HIT:     232604  MISS:        432
cpu0_STLB RFO       ACCESS:      31132  HIT:      31075  MISS:         57
cpu0_STLB PREFETCH  ACCESS:          0  HIT:          0  MISS:          0
cpu0_STLB WRITEBACK ACCESS:          0  HIT:          0  MISS:          0
cpu0_STLB TRANSLATION ACCESS:          0  HIT:          0  MISS:          0
cpu0_STLB PREFETCH  REQUESTED:          0  ISSUED:          0  USEFUL:          0  USELESS:          0
cpu0_STLB AVERAGE MISS LATENCY: 224.164 cycles
cpu0_L1D TOTAL     ACCESS:  476118007  HIT:  468456604  MISS:    7661403
cpu0_L1D LOAD      ACCESS:  197775258  HIT:  196510197  MISS:    1265061
cpu0_L1D RFO       ACCESS:   88121676  HIT:   84895608  MISS:    3226068
cpu0_L1D PREFETCH  ACCESS:  190220585  HIT:  187050643  MISS:    3169942
cpu0_L1D WRITEBACK ACCESS:          0  HIT:          0  MISS:          0
cpu0_L1D TRANSLATION ACCESS:        488  HIT:        156  MISS:        332
cpu0_L1D PREFETCH  REQUESTED:  197977236  ISSUED:  192426874  USEFUL:    3033371  USELESS:     269690
cpu0_L1D AVERAGE MISS LATENCY: 17.3084 cycles
cpu0_L2C TOTAL     ACCESS:   16766919  HIT:   15375572  MISS:    1391347
cpu0_L2C LOAD      ACCESS:    2668190  HIT:    2269202  MISS:     398988
cpu0_L2C RFO       ACCESS:    3211348  HIT:    2589784  MISS:     621564
cpu0_L2C PREFETCH  ACCESS:    7026680  HIT:    6657883  MISS:     368797
cpu0_L2C WRITEBACK ACCESS:    3860369  HIT:    3858527  MISS:       1842
cpu0_L2C TRANSLATION ACCESS:        332  HIT:        176  MISS:        156
cpu0_L2C PREFETCH  REQUESTED:    3771155  ISSUED:    3729455  USEFUL:      54441  USELESS:      14377
cpu0_L2C AVERAGE MISS LATENCY: 32.9772 cycles
LLC TOTAL     ACCESS:    2103610  HIT:    2072238  MISS:      31372
LLC LOAD      ACCESS:     398955  HIT:     390843  MISS:       8112
LLC RFO       ACCESS:     621560  HIT:     617937  MISS:       3623
LLC PREFETCH  ACCESS:     369224  HIT:     349687  MISS:      19537
LLC WRITEBACK ACCESS:     713715  HIT:     713617  MISS:         98
LLC TRANSLATION ACCESS:        156  HIT:        154  MISS:          2
LLC PREFETCH  REQUESTED:          0  ISSUED:          0  USEFUL:          0  USELESS:          0
LLC AVERAGE MISS LATENCY: 266.998 cycles
OPTgen accesses: 14889
OPTgen hits: 17481
OPTgen hit rate: 117.409



DRAM Statistics
 CHANNEL 0
 RQ ROW_BUFFER_HIT:       9393  ROW_BUFFER_MISS:      21881
 DBUS AVG_CONGESTED_CYCLE:    3.65507
 WQ ROW_BUFFER_HIT:         64  ROW_BUFFER_MISS:        738  FULL:          0


CPU 0 Branch Prediction Accuracy: 92.4109% MPKI: 8.46361 Average ROB Occupancy at Mispredict: 86.2009
Branch type MPKI
BRANCH_DIRECT_JUMP: 0.000141
BRANCH_INDIRECT: 0.00483
BRANCH_CONDITIONAL: 8.45841
BRANCH_DIRECT_CALL: 0.000139
BRANCH_INDIRECT_CALL: 0
BRANCH_RETURN: 9.1e-05

