
*** ChampSim Multicore Out-of-Order Simulator ***

Warmup Instructions: 200000000
Simulation Instructions: 1000000000
Number of CPUs: 1
Off-chip DRAM Size: 4 GiB Channels: 1 Width: 64-bit Data Rate: 3200 MT/s

VirtualMemory physical capacity: 8588881920 num_ppages: 2096895
VirtualMemory page size: 4096 log2_page_size: 12

CPU 0 runs tracer/pin/traces/bfs-urand-681B.champsim.xz
Basic BTB sets: 1024 ways: 8 indirect buffer size: 4096 RAS size: 64
cpu0_L1D next line prefetcher
cpu0_L2C IP-based stride prefetcher
Initialize Hawkeye state
WARNING: The extended signature CACHE::prefetch_line(ip, base_addr, pf_addr, fill_this_level, prefetch_metadata) is deprecated.
WARNING: Use CACHE::prefetch_line(pf_addr, fill_this_level, prefetch_metadata) instead.
Heartbeat CPU 0 instructions: 10000000 cycles: 2607476 heartbeat IPC: 3.83513 cumulative IPC: 3.83513 (Simulation time: 0 hr 0 min 32 sec) 
Heartbeat CPU 0 instructions: 20000002 cycles: 5215085 heartbeat IPC: 3.83493 cumulative IPC: 3.83503 (Simulation time: 0 hr 1 min 3 sec) 
Heartbeat CPU 0 instructions: 30000000 cycles: 7823313 heartbeat IPC: 3.83402 cumulative IPC: 3.83469 (Simulation time: 0 hr 1 min 34 sec) 
Heartbeat CPU 0 instructions: 40000001 cycles: 10431368 heartbeat IPC: 3.83428 cumulative IPC: 3.83459 (Simulation time: 0 hr 2 min 5 sec) 
Heartbeat CPU 0 instructions: 50000004 cycles: 13039017 heartbeat IPC: 3.83487 cumulative IPC: 3.83465 (Simulation time: 0 hr 2 min 36 sec) 
Heartbeat CPU 0 instructions: 60000003 cycles: 15646786 heartbeat IPC: 3.8347 cumulative IPC: 3.83465 (Simulation time: 0 hr 3 min 8 sec) 
Heartbeat CPU 0 instructions: 70000004 cycles: 18253940 heartbeat IPC: 3.8356 cumulative IPC: 3.83479 (Simulation time: 0 hr 3 min 39 sec) 
Heartbeat CPU 0 instructions: 80000003 cycles: 20861934 heartbeat IPC: 3.83436 cumulative IPC: 3.83474 (Simulation time: 0 hr 4 min 10 sec) 
Heartbeat CPU 0 instructions: 90000002 cycles: 23469819 heartbeat IPC: 3.83452 cumulative IPC: 3.83471 (Simulation time: 0 hr 4 min 41 sec) 
Heartbeat CPU 0 instructions: 100000001 cycles: 26077174 heartbeat IPC: 3.8353 cumulative IPC: 3.83477 (Simulation time: 0 hr 5 min 13 sec) 
Heartbeat CPU 0 instructions: 110000001 cycles: 28684550 heartbeat IPC: 3.83527 cumulative IPC: 3.83482 (Simulation time: 0 hr 5 min 44 sec) 
Heartbeat CPU 0 instructions: 120000002 cycles: 31291381 heartbeat IPC: 3.83608 cumulative IPC: 3.83492 (Simulation time: 0 hr 6 min 15 sec) 
Heartbeat CPU 0 instructions: 130000000 cycles: 35111566 heartbeat IPC: 2.61767 cumulative IPC: 3.70248 (Simulation time: 0 hr 6 min 53 sec) 
Heartbeat CPU 0 instructions: 140000000 cycles: 45111567 heartbeat IPC: 1 cumulative IPC: 3.10342 (Simulation time: 0 hr 8 min 4 sec) 
Heartbeat CPU 0 instructions: 150000001 cycles: 51464832 heartbeat IPC: 1.57399 cumulative IPC: 2.91461 (Simulation time: 0 hr 8 min 52 sec) 
Heartbeat CPU 0 instructions: 160000001 cycles: 53964832 heartbeat IPC: 4 cumulative IPC: 2.96489 (Simulation time: 0 hr 9 min 16 sec) 
Heartbeat CPU 0 instructions: 170000001 cycles: 56464832 heartbeat IPC: 4 cumulative IPC: 3.01072 (Simulation time: 0 hr 9 min 41 sec) 
Heartbeat CPU 0 instructions: 180000001 cycles: 58964832 heartbeat IPC: 4 cumulative IPC: 3.05267 (Simulation time: 0 hr 10 min 5 sec) 
Heartbeat CPU 0 instructions: 190000001 cycles: 61464832 heartbeat IPC: 4 cumulative IPC: 3.0912 (Simulation time: 0 hr 10 min 30 sec) 
Heartbeat CPU 0 instructions: 200000001 cycles: 63964832 heartbeat IPC: 4 cumulative IPC: 3.12672 (Simulation time: 0 hr 10 min 54 sec) 

Warmup complete CPU 0 instructions: 200000001 cycles: 63964832 (Simulation time: 0 hr 10 min 54 sec) 

Heartbeat CPU 0 instructions: 210000000 cycles: 231028296 heartbeat IPC: 0.0598575 cumulative IPC: 0.0598575 (Simulation time: 0 hr 14 min 56 sec) 
Heartbeat CPU 0 instructions: 220000000 cycles: 398230703 heartbeat IPC: 0.0598078 cumulative IPC: 0.0598326 (Simulation time: 0 hr 18 min 59 sec) 
Heartbeat CPU 0 instructions: 230000000 cycles: 565631206 heartbeat IPC: 0.059737 cumulative IPC: 0.0598007 (Simulation time: 0 hr 23 min 2 sec) 
Heartbeat CPU 0 instructions: 240000001 cycles: 733025427 heartbeat IPC: 0.0597392 cumulative IPC: 0.0597853 (Simulation time: 0 hr 27 min 4 sec) 
Heartbeat CPU 0 instructions: 250000001 cycles: 900531720 heartbeat IPC: 0.0596992 cumulative IPC: 0.0597681 (Simulation time: 0 hr 31 min 7 sec) 
Heartbeat CPU 0 instructions: 260000000 cycles: 1067801479 heartbeat IPC: 0.0597837 cumulative IPC: 0.0597707 (Simulation time: 0 hr 35 min 13 sec) 
Heartbeat CPU 0 instructions: 270000001 cycles: 1234887642 heartbeat IPC: 0.0598494 cumulative IPC: 0.0597819 (Simulation time: 0 hr 39 min 26 sec) 
Heartbeat CPU 0 instructions: 280000003 cycles: 1402382987 heartbeat IPC: 0.0597032 cumulative IPC: 0.0597721 (Simulation time: 0 hr 44 min 0 sec) 
Heartbeat CPU 0 instructions: 290000001 cycles: 1569629762 heartbeat IPC: 0.0597919 cumulative IPC: 0.0597743 (Simulation time: 0 hr 48 min 49 sec) 
Heartbeat CPU 0 instructions: 300000002 cycles: 1736888404 heartbeat IPC: 0.0597876 cumulative IPC: 0.0597756 (Simulation time: 0 hr 53 min 49 sec) 
Heartbeat CPU 0 instructions: 310000001 cycles: 1904130060 heartbeat IPC: 0.0597937 cumulative IPC: 0.0597772 (Simulation time: 0 hr 59 min 15 sec) 
Heartbeat CPU 0 instructions: 320000000 cycles: 2071944493 heartbeat IPC: 0.0595896 cumulative IPC: 0.0597616 (Simulation time: 1 hr 4 min 41 sec) 
Heartbeat CPU 0 instructions: 330000000 cycles: 2239292705 heartbeat IPC: 0.0597556 cumulative IPC: 0.0597611 (Simulation time: 1 hr 10 min 15 sec) 
Heartbeat CPU 0 instructions: 340000001 cycles: 2406745847 heartbeat IPC: 0.0597182 cumulative IPC: 0.059758 (Simulation time: 1 hr 16 min 2 sec) 
Heartbeat CPU 0 instructions: 350000001 cycles: 2574676200 heartbeat IPC: 0.0595485 cumulative IPC: 0.059744 (Simulation time: 1 hr 22 min 12 sec) 
Heartbeat CPU 0 instructions: 360000004 cycles: 2741750746 heartbeat IPC: 0.0598535 cumulative IPC: 0.0597509 (Simulation time: 1 hr 28 min 19 sec) 
Heartbeat CPU 0 instructions: 370000001 cycles: 2909239569 heartbeat IPC: 0.0597055 cumulative IPC: 0.0597482 (Simulation time: 1 hr 34 min 27 sec) 
Heartbeat CPU 0 instructions: 380000004 cycles: 3076303132 heartbeat IPC: 0.0598575 cumulative IPC: 0.0597542 (Simulation time: 1 hr 40 min 32 sec) 
Heartbeat CPU 0 instructions: 390000001 cycles: 3243721465 heartbeat IPC: 0.0597306 cumulative IPC: 0.059753 (Simulation time: 1 hr 46 min 30 sec) 
Heartbeat CPU 0 instructions: 400000001 cycles: 3410795986 heartbeat IPC: 0.0598535 cumulative IPC: 0.059758 (Simulation time: 1 hr 52 min 25 sec) 
Heartbeat CPU 0 instructions: 410000002 cycles: 3578758783 heartbeat IPC: 0.059537 cumulative IPC: 0.0597475 (Simulation time: 1 hr 58 min 20 sec) 
Heartbeat CPU 0 instructions: 420000000 cycles: 3746274957 heartbeat IPC: 0.0596957 cumulative IPC: 0.0597451 (Simulation time: 2 hr 4 min 6 sec) 
Heartbeat CPU 0 instructions: 430000000 cycles: 3914028933 heartbeat IPC: 0.0596111 cumulative IPC: 0.0597393 (Simulation time: 2 hr 9 min 46 sec) 
Heartbeat CPU 0 instructions: 440000000 cycles: 4081595048 heartbeat IPC: 0.0596779 cumulative IPC: 0.0597367 (Simulation time: 2 hr 15 min 26 sec) 
Heartbeat CPU 0 instructions: 450000000 cycles: 4248877562 heartbeat IPC: 0.0597791 cumulative IPC: 0.0597384 (Simulation time: 2 hr 21 min 11 sec) 
Heartbeat CPU 0 instructions: 460000002 cycles: 4416173361 heartbeat IPC: 0.0597744 cumulative IPC: 0.0597398 (Simulation time: 2 hr 27 min 10 sec) 
Heartbeat CPU 0 instructions: 470000004 cycles: 4583873638 heartbeat IPC: 0.0596302 cumulative IPC: 0.0597357 (Simulation time: 2 hr 33 min 7 sec) 
Heartbeat CPU 0 instructions: 480000000 cycles: 4751052059 heartbeat IPC: 0.0598163 cumulative IPC: 0.0597386 (Simulation time: 2 hr 38 min 48 sec) 
Heartbeat CPU 0 instructions: 490000002 cycles: 4918202542 heartbeat IPC: 0.0598263 cumulative IPC: 0.0597416 (Simulation time: 2 hr 44 min 51 sec) 
Heartbeat CPU 0 instructions: 500000001 cycles: 5085503940 heartbeat IPC: 0.0597724 cumulative IPC: 0.0597426 (Simulation time: 2 hr 50 min 59 sec) 
Heartbeat CPU 0 instructions: 510000000 cycles: 5252966587 heartbeat IPC: 0.0597148 cumulative IPC: 0.0597417 (Simulation time: 2 hr 57 min 9 sec) 
Heartbeat CPU 0 instructions: 520000001 cycles: 5419907793 heartbeat IPC: 0.0599013 cumulative IPC: 0.0597467 (Simulation time: 3 hr 3 min 15 sec) 
Heartbeat CPU 0 instructions: 530000000 cycles: 5587014199 heartbeat IPC: 0.0598421 cumulative IPC: 0.0597496 (Simulation time: 3 hr 9 min 12 sec) 
Heartbeat CPU 0 instructions: 540000003 cycles: 5754489039 heartbeat IPC: 0.0597105 cumulative IPC: 0.0597484 (Simulation time: 3 hr 15 min 19 sec) 
Heartbeat CPU 0 instructions: 550000001 cycles: 5921932327 heartbeat IPC: 0.0597217 cumulative IPC: 0.0597477 (Simulation time: 3 hr 21 min 27 sec) 
Heartbeat CPU 0 instructions: 560000003 cycles: 6089152696 heartbeat IPC: 0.0598013 cumulative IPC: 0.0597492 (Simulation time: 3 hr 27 min 35 sec) 
Heartbeat CPU 0 instructions: 570000001 cycles: 6256347335 heartbeat IPC: 0.0598105 cumulative IPC: 0.0597508 (Simulation time: 3 hr 33 min 40 sec) 
Heartbeat CPU 0 instructions: 580000004 cycles: 6423215687 heartbeat IPC: 0.0599275 cumulative IPC: 0.0597555 (Simulation time: 3 hr 39 min 48 sec) 
Heartbeat CPU 0 instructions: 590000000 cycles: 6590682527 heartbeat IPC: 0.0597133 cumulative IPC: 0.0597544 (Simulation time: 3 hr 45 min 58 sec) 
Heartbeat CPU 0 instructions: 600000000 cycles: 6757675680 heartbeat IPC: 0.0598827 cumulative IPC: 0.0597576 (Simulation time: 3 hr 52 min 5 sec) 
Heartbeat CPU 0 instructions: 610000002 cycles: 6925594249 heartbeat IPC: 0.0595527 cumulative IPC: 0.0597526 (Simulation time: 3 hr 58 min 3 sec) 
Heartbeat CPU 0 instructions: 620000001 cycles: 7092392498 heartbeat IPC: 0.0599527 cumulative IPC: 0.0597573 (Simulation time: 4 hr 4 min 2 sec) 
Heartbeat CPU 0 instructions: 630000000 cycles: 7260104954 heartbeat IPC: 0.0596259 cumulative IPC: 0.0597543 (Simulation time: 4 hr 9 min 59 sec) 
Heartbeat CPU 0 instructions: 640000000 cycles: 7427350189 heartbeat IPC: 0.0597924 cumulative IPC: 0.0597551 (Simulation time: 4 hr 15 min 43 sec) 
Heartbeat CPU 0 instructions: 650000002 cycles: 7594377602 heartbeat IPC: 0.0598704 cumulative IPC: 0.0597577 (Simulation time: 4 hr 21 min 3 sec) 
Heartbeat CPU 0 instructions: 660000000 cycles: 7761734961 heartbeat IPC: 0.0597524 cumulative IPC: 0.0597576 (Simulation time: 4 hr 26 min 27 sec) 
Heartbeat CPU 0 instructions: 670000001 cycles: 7929127975 heartbeat IPC: 0.0597397 cumulative IPC: 0.0597572 (Simulation time: 4 hr 31 min 43 sec) 
Heartbeat CPU 0 instructions: 680000000 cycles: 8096135892 heartbeat IPC: 0.0598774 cumulative IPC: 0.0597597 (Simulation time: 4 hr 36 min 44 sec) 
Heartbeat CPU 0 instructions: 690000002 cycles: 8263452516 heartbeat IPC: 0.0597669 cumulative IPC: 0.0597598 (Simulation time: 4 hr 41 min 37 sec) 
Heartbeat CPU 0 instructions: 700000001 cycles: 8431297136 heartbeat IPC: 0.0595789 cumulative IPC: 0.0597562 (Simulation time: 4 hr 46 min 38 sec) 
Heartbeat CPU 0 instructions: 710000000 cycles: 8599201084 heartbeat IPC: 0.0595579 cumulative IPC: 0.0597523 (Simulation time: 4 hr 51 min 42 sec) 
Heartbeat CPU 0 instructions: 720000000 cycles: 8765925145 heartbeat IPC: 0.0599793 cumulative IPC: 0.0597567 (Simulation time: 4 hr 56 min 41 sec) 
Heartbeat CPU 0 instructions: 730000000 cycles: 8933834544 heartbeat IPC: 0.0595559 cumulative IPC: 0.0597529 (Simulation time: 5 hr 1 min 39 sec) 
Heartbeat CPU 0 instructions: 740000000 cycles: 9101105634 heartbeat IPC: 0.0597832 cumulative IPC: 0.0597534 (Simulation time: 5 hr 6 min 36 sec) 
Heartbeat CPU 0 instructions: 750000001 cycles: 9268462076 heartbeat IPC: 0.0597527 cumulative IPC: 0.0597534 (Simulation time: 5 hr 11 min 29 sec) 
Heartbeat CPU 0 instructions: 760000001 cycles: 9435796338 heartbeat IPC: 0.0597606 cumulative IPC: 0.0597535 (Simulation time: 5 hr 16 min 25 sec) 
Heartbeat CPU 0 instructions: 770000000 cycles: 9603525256 heartbeat IPC: 0.05962 cumulative IPC: 0.0597512 (Simulation time: 5 hr 21 min 7 sec) 
Heartbeat CPU 0 instructions: 780000000 cycles: 9770944267 heartbeat IPC: 0.0597304 cumulative IPC: 0.0597508 (Simulation time: 5 hr 25 min 36 sec) 
Heartbeat CPU 0 instructions: 790000000 cycles: 9938492310 heartbeat IPC: 0.0596844 cumulative IPC: 0.0597497 (Simulation time: 5 hr 29 min 51 sec) 
Heartbeat CPU 0 instructions: 800000000 cycles: 10105546606 heartbeat IPC: 0.0598608 cumulative IPC: 0.0597515 (Simulation time: 5 hr 34 min 4 sec) 
Heartbeat CPU 0 instructions: 810000000 cycles: 10272815201 heartbeat IPC: 0.0597841 cumulative IPC: 0.0597521 (Simulation time: 5 hr 38 min 16 sec) 
Heartbeat CPU 0 instructions: 820000000 cycles: 10440140327 heartbeat IPC: 0.0597639 cumulative IPC: 0.0597523 (Simulation time: 5 hr 42 min 24 sec) 
Heartbeat CPU 0 instructions: 830000001 cycles: 10607715259 heartbeat IPC: 0.0596748 cumulative IPC: 0.059751 (Simulation time: 5 hr 46 min 28 sec) 
Heartbeat CPU 0 instructions: 840000000 cycles: 10774799260 heartbeat IPC: 0.0598501 cumulative IPC: 0.0597526 (Simulation time: 5 hr 50 min 31 sec) 
Heartbeat CPU 0 instructions: 850000002 cycles: 10942326962 heartbeat IPC: 0.0596916 cumulative IPC: 0.0597516 (Simulation time: 5 hr 54 min 37 sec) 
Heartbeat CPU 0 instructions: 860000001 cycles: 11109689516 heartbeat IPC: 0.0597505 cumulative IPC: 0.0597516 (Simulation time: 5 hr 58 min 40 sec) 
Heartbeat CPU 0 instructions: 870000003 cycles: 11276902267 heartbeat IPC: 0.0598041 cumulative IPC: 0.0597524 (Simulation time: 6 hr 2 min 46 sec) 
Heartbeat CPU 0 instructions: 880000001 cycles: 11444209817 heartbeat IPC: 0.0597702 cumulative IPC: 0.0597527 (Simulation time: 6 hr 7 min 1 sec) 
Heartbeat CPU 0 instructions: 890000003 cycles: 11611937685 heartbeat IPC: 0.0596204 cumulative IPC: 0.0597507 (Simulation time: 6 hr 11 min 42 sec) 
Heartbeat CPU 0 instructions: 900000000 cycles: 11779456814 heartbeat IPC: 0.0596947 cumulative IPC: 0.0597499 (Simulation time: 6 hr 16 min 59 sec) 
Heartbeat CPU 0 instructions: 910000000 cycles: 11946759721 heartbeat IPC: 0.0597718 cumulative IPC: 0.0597503 (Simulation time: 6 hr 22 min 53 sec) 
Heartbeat CPU 0 instructions: 920000001 cycles: 12114429408 heartbeat IPC: 0.0596411 cumulative IPC: 0.0597487 (Simulation time: 6 hr 29 min 1 sec) 
Heartbeat CPU 0 instructions: 930000004 cycles: 12281876448 heartbeat IPC: 0.0597204 cumulative IPC: 0.0597483 (Simulation time: 6 hr 35 min 7 sec) 
Heartbeat CPU 0 instructions: 940000000 cycles: 12449497698 heartbeat IPC: 0.0596583 cumulative IPC: 0.0597471 (Simulation time: 6 hr 41 min 16 sec) 
Heartbeat CPU 0 instructions: 950000000 cycles: 12616984736 heartbeat IPC: 0.0597061 cumulative IPC: 0.0597466 (Simulation time: 6 hr 47 min 23 sec) 
Heartbeat CPU 0 instructions: 960000001 cycles: 12784613603 heartbeat IPC: 0.0596556 cumulative IPC: 0.0597454 (Simulation time: 6 hr 53 min 28 sec) 
Heartbeat CPU 0 instructions: 970000004 cycles: 12952041712 heartbeat IPC: 0.0597271 cumulative IPC: 0.0597451 (Simulation time: 6 hr 59 min 37 sec) 
Heartbeat CPU 0 instructions: 980000000 cycles: 13119117255 heartbeat IPC: 0.0598531 cumulative IPC: 0.0597465 (Simulation time: 7 hr 5 min 44 sec) 
Heartbeat CPU 0 instructions: 990000000 cycles: 13286725826 heartbeat IPC: 0.0596628 cumulative IPC: 0.0597455 (Simulation time: 7 hr 11 min 50 sec) 
Heartbeat CPU 0 instructions: 1000000001 cycles: 13454379101 heartbeat IPC: 0.0596469 cumulative IPC: 0.0597442 (Simulation time: 7 hr 17 min 56 sec) 
Heartbeat CPU 0 instructions: 1010000003 cycles: 13622206774 heartbeat IPC: 0.0595849 cumulative IPC: 0.0597423 (Simulation time: 7 hr 24 min 4 sec) 
Heartbeat CPU 0 instructions: 1020000000 cycles: 13789435724 heartbeat IPC: 0.0597982 cumulative IPC: 0.0597429 (Simulation time: 7 hr 30 min 5 sec) 
Heartbeat CPU 0 instructions: 1030000000 cycles: 13957019412 heartbeat IPC: 0.0596717 cumulative IPC: 0.0597421 (Simulation time: 7 hr 35 min 57 sec) 
Heartbeat CPU 0 instructions: 1040000003 cycles: 14123953294 heartbeat IPC: 0.059904 cumulative IPC: 0.059744 (Simulation time: 7 hr 41 min 36 sec) 
Heartbeat CPU 0 instructions: 1050000000 cycles: 14291604473 heartbeat IPC: 0.0596476 cumulative IPC: 0.0597429 (Simulation time: 7 hr 47 min 5 sec) 
Heartbeat CPU 0 instructions: 1060000001 cycles: 14459137082 heartbeat IPC: 0.0596899 cumulative IPC: 0.0597423 (Simulation time: 7 hr 52 min 6 sec) 
Heartbeat CPU 0 instructions: 1070000004 cycles: 14626625495 heartbeat IPC: 0.0597056 cumulative IPC: 0.0597418 (Simulation time: 7 hr 56 min 38 sec) 
Heartbeat CPU 0 instructions: 1080000000 cycles: 14793835237 heartbeat IPC: 0.0598051 cumulative IPC: 0.0597425 (Simulation time: 8 hr 1 min 17 sec) 
Heartbeat CPU 0 instructions: 1090000001 cycles: 14960690687 heartbeat IPC: 0.0599321 cumulative IPC: 0.0597447 (Simulation time: 8 hr 6 min 15 sec) 
Heartbeat CPU 0 instructions: 1100000000 cycles: 15128007971 heartbeat IPC: 0.0597667 cumulative IPC: 0.0597449 (Simulation time: 8 hr 11 min 39 sec) 
Heartbeat CPU 0 instructions: 1110000000 cycles: 15295407865 heartbeat IPC: 0.0597372 cumulative IPC: 0.0597448 (Simulation time: 8 hr 17 min 11 sec) 
Heartbeat CPU 0 instructions: 1120000000 cycles: 15462826283 heartbeat IPC: 0.0597306 cumulative IPC: 0.0597447 (Simulation time: 8 hr 22 min 53 sec) 
Heartbeat CPU 0 instructions: 1130000000 cycles: 15630216688 heartbeat IPC: 0.0597406 cumulative IPC: 0.0597446 (Simulation time: 8 hr 28 min 28 sec) 
Heartbeat CPU 0 instructions: 1140000000 cycles: 15797446493 heartbeat IPC: 0.059798 cumulative IPC: 0.0597452 (Simulation time: 8 hr 33 min 45 sec) 
Heartbeat CPU 0 instructions: 1150000000 cycles: 15964361158 heartbeat IPC: 0.0599109 cumulative IPC: 0.0597469 (Simulation time: 8 hr 38 min 51 sec) 
Heartbeat CPU 0 instructions: 1160000001 cycles: 16131578432 heartbeat IPC: 0.0598024 cumulative IPC: 0.0597475 (Simulation time: 8 hr 43 min 45 sec) 
Heartbeat CPU 0 instructions: 1170000000 cycles: 16295581713 heartbeat IPC: 0.0609744 cumulative IPC: 0.0597599 (Simulation time: 8 hr 48 min 34 sec) 
Heartbeat CPU 0 instructions: 1180000000 cycles: 16462771605 heartbeat IPC: 0.0598122 cumulative IPC: 0.0597604 (Simulation time: 8 hr 53 min 28 sec) 
Heartbeat CPU 0 instructions: 1190000000 cycles: 16629946110 heartbeat IPC: 0.0598177 cumulative IPC: 0.059761 (Simulation time: 8 hr 58 min 21 sec) 
*** Reached end of trace: tracer/pin/traces/bfs-urand-681B.champsim.xz
Heartbeat CPU 0 instructions: 1200000000 cycles: 16797674476 heartbeat IPC: 0.0596202 cumulative IPC: 0.0597596 (Simulation time: 9 hr 3 min 11 sec) 
Finished CPU 0 instructions: 1000000004 cycles: 16733709645 cumulative IPC: 0.0597596 (Simulation time: 9 hr 3 min 11 sec) 

ChampSim completed all CPUs

Region of Interest Statistics

CPU 0 cumulative IPC: 0.0597596 instructions: 1000000004 cycles: 16733709645
cpu0_DTLB TOTAL     ACCESS:  243606276  HIT:  179050040  MISS:   64556236
cpu0_DTLB LOAD      ACCESS:  209316390  HIT:  144834778  MISS:   64481612
cpu0_DTLB RFO       ACCESS:   34289886  HIT:   34215262  MISS:      74624
cpu0_DTLB PREFETCH  ACCESS:          0  HIT:          0  MISS:          0
cpu0_DTLB WRITEBACK ACCESS:          0  HIT:          0  MISS:          0
cpu0_DTLB TRANSLATION ACCESS:          0  HIT:          0  MISS:          0
cpu0_DTLB PREFETCH  REQUESTED:          0  ISSUED:          0  USEFUL:          0  USELESS:          0
cpu0_DTLB AVERAGE MISS LATENCY: 22.6569 cycles
cpu0_ITLB TOTAL     ACCESS:  105214054  HIT:  105214054  MISS:          0
cpu0_ITLB LOAD      ACCESS:  105214054  HIT:  105214054  MISS:          0
cpu0_ITLB RFO       ACCESS:          0  HIT:          0  MISS:          0
cpu0_ITLB PREFETCH  ACCESS:          0  HIT:          0  MISS:          0
cpu0_ITLB WRITEBACK ACCESS:          0  HIT:          0  MISS:          0
cpu0_ITLB TRANSLATION ACCESS:          0  HIT:          0  MISS:          0
cpu0_ITLB PREFETCH  REQUESTED:          0  ISSUED:          0  USEFUL:          0  USELESS:          0
cpu0_ITLB AVERAGE MISS LATENCY: -nan cycles
cpu0_STLB TOTAL     ACCESS:   64556236  HIT:   56953790  MISS:    7602446
cpu0_STLB LOAD      ACCESS:   64481612  HIT:   56884514  MISS:    7597098
cpu0_STLB RFO       ACCESS:      74624  HIT:      69276  MISS:       5348
cpu0_STLB PREFETCH  ACCESS:          0  HIT:          0  MISS:          0
cpu0_STLB WRITEBACK ACCESS:          0  HIT:          0  MISS:          0
cpu0_STLB TRANSLATION ACCESS:          0  HIT:          0  MISS:          0
cpu0_STLB PREFETCH  REQUESTED:          0  ISSUED:          0  USEFUL:          0  USELESS:          0
cpu0_STLB AVERAGE MISS LATENCY: 113.388 cycles
cpu0_L1D TOTAL     ACCESS:  471594641  HIT:  301004786  MISS:  170589855
cpu0_L1D LOAD      ACCESS:  221514040  HIT:  139397222  MISS:   82116818
cpu0_L1D RFO       ACCESS:   34310780  HIT:   34310780  MISS:          0
cpu0_L1D PREFETCH  ACCESS:  210900233  HIT:  122549227  MISS:   88351006
cpu0_L1D WRITEBACK ACCESS:          0  HIT:          0  MISS:          0
cpu0_L1D TRANSLATION ACCESS:    4869588  HIT:    4747557  MISS:     122031
cpu0_L1D PREFETCH  REQUESTED:  222114066  ISSUED:  218841875  USEFUL:   18801444  USELESS:   70568423
cpu0_L1D AVERAGE MISS LATENCY: 382.041 cycles
cpu0_L2C TOTAL     ACCESS:  181203554  HIT:   13130871  MISS:  168072683
cpu0_L2C LOAD      ACCESS:   81097973  HIT:    2814046  MISS:   78283927
cpu0_L2C RFO       ACCESS:          0  HIT:          0  MISS:          0
cpu0_L2C PREFETCH  ACCESS:   98487030  HIT:    8824513  MISS:   89662517
cpu0_L2C WRITEBACK ACCESS:    1496520  HIT:    1451943  MISS:      44577
cpu0_L2C TRANSLATION ACCESS:     122031  HIT:      40369  MISS:      81662
cpu0_L2C PREFETCH  REQUESTED:   10599395  ISSUED:    9315450  USEFUL:    1989294  USELESS:    1109960
cpu0_L2C AVERAGE MISS LATENCY: 388.13 cycles
LLC TOTAL     ACCESS:  169590195  HIT:   40655882  MISS:  128934313
LLC LOAD      ACCESS:   78283927  HIT:   19954293  MISS:   58329634
LLC RFO       ACCESS:          0  HIT:          0  MISS:          0
LLC PREFETCH  ACCESS:   89728078  HIT:   19833222  MISS:   69894856
LLC WRITEBACK ACCESS:    1496528  HIT:     846285  MISS:     650243
LLC TRANSLATION ACCESS:      81662  HIT:      22082  MISS:      59580
LLC PREFETCH  REQUESTED:          0  ISSUED:          0  USEFUL:          0  USELESS:          0
LLC AVERAGE MISS LATENCY: 471.211 cycles
OPTgen accesses: 1534623
OPTgen hits: 979437
OPTgen hit rate: 63.8226



DRAM Statistics
 CHANNEL 0
 RQ ROW_BUFFER_HIT:     855241  ROW_BUFFER_MISS:  127428814
 DBUS AVG_CONGESTED_CYCLE:    3.84061
 WQ ROW_BUFFER_HIT:     235429  ROW_BUFFER_MISS:    1261052  FULL:          0


CPU 0 Branch Prediction Accuracy: 84.0708% MPKI: 31.666 Average ROB Occupancy at Mispredict: 12.42
Branch type MPKI
BRANCH_DIRECT_JUMP: 0
BRANCH_INDIRECT: 0
BRANCH_CONDITIONAL: 31.666
BRANCH_DIRECT_CALL: 0
BRANCH_INDIRECT_CALL: 0
BRANCH_RETURN: 0

