
*** ChampSim Multicore Out-of-Order Simulator ***

Warmup Instructions: 1000000
Simulation Instructions: 1000000000
Number of CPUs: 1
Off-chip DRAM Size: 4 GiB Channels: 1 Width: 64-bit Data Rate: 3200 MT/s

VirtualMemory physical capacity: 8588881920 num_ppages: 2096895
VirtualMemory page size: 4096 log2_page_size: 12

CPU 0 runs tracer/pin/traces/spec2k17/607.cactuBSSN_s-2421B.champsimtrace.xz
Basic BTB sets: 1024 ways: 8 indirect buffer size: 4096 RAS size: 64
cpu0_L1D next line prefetcher
cpu0_L2C IP-based stride prefetcher
Initialize Hawkeye state
WARNING: The extended signature CACHE::prefetch_line(ip, base_addr, pf_addr, fill_this_level, prefetch_metadata) is deprecated.
WARNING: Use CACHE::prefetch_line(pf_addr, fill_this_level, prefetch_metadata) instead.

Warmup complete CPU 0 instructions: 1000004 cycles: 392969 (Simulation time: 0 hr 0 min 4 sec) 

Heartbeat CPU 0 instructions: 10000003 cycles: 8235605 heartbeat IPC: 1.21424 cumulative IPC: 1.14757 (Simulation time: 0 hr 0 min 55 sec) 
Heartbeat CPU 0 instructions: 20000001 cycles: 17060375 heartbeat IPC: 1.13317 cumulative IPC: 1.13995 (Simulation time: 0 hr 1 min 53 sec) 
Heartbeat CPU 0 instructions: 30000000 cycles: 25746059 heartbeat IPC: 1.15132 cumulative IPC: 1.14384 (Simulation time: 0 hr 2 min 49 sec) 
Heartbeat CPU 0 instructions: 40000000 cycles: 34435717 heartbeat IPC: 1.15079 cumulative IPC: 1.14562 (Simulation time: 0 hr 3 min 46 sec) 
Heartbeat CPU 0 instructions: 50000003 cycles: 43157973 heartbeat IPC: 1.14649 cumulative IPC: 1.1458 (Simulation time: 0 hr 4 min 43 sec) 
Heartbeat CPU 0 instructions: 60000002 cycles: 55787614 heartbeat IPC: 0.791788 cumulative IPC: 1.06508 (Simulation time: 0 hr 5 min 51 sec) 
Heartbeat CPU 0 instructions: 70000000 cycles: 68278642 heartbeat IPC: 0.800574 cumulative IPC: 1.01641 (Simulation time: 0 hr 7 min 1 sec) 
Heartbeat CPU 0 instructions: 80000002 cycles: 80721590 heartbeat IPC: 0.803668 cumulative IPC: 0.98346 (Simulation time: 0 hr 8 min 10 sec) 
Heartbeat CPU 0 instructions: 90000000 cycles: 93202442 heartbeat IPC: 0.801227 cumulative IPC: 0.958954 (Simulation time: 0 hr 9 min 20 sec) 
Heartbeat CPU 0 instructions: 100000001 cycles: 105550164 heartbeat IPC: 0.809866 cumulative IPC: 0.941448 (Simulation time: 0 hr 10 min 35 sec) 
Heartbeat CPU 0 instructions: 110000000 cycles: 117949342 heartbeat IPC: 0.806505 cumulative IPC: 0.927215 (Simulation time: 0 hr 11 min 49 sec) 
Heartbeat CPU 0 instructions: 120000001 cycles: 130368116 heartbeat IPC: 0.805233 cumulative IPC: 0.91556 (Simulation time: 0 hr 13 min 7 sec) 
Heartbeat CPU 0 instructions: 130000001 cycles: 142902502 heartbeat IPC: 0.797805 cumulative IPC: 0.905203 (Simulation time: 0 hr 14 min 26 sec) 
Heartbeat CPU 0 instructions: 140000003 cycles: 155471511 heartbeat IPC: 0.795608 cumulative IPC: 0.89632 (Simulation time: 0 hr 15 min 44 sec) 
Heartbeat CPU 0 instructions: 150000000 cycles: 168202821 heartbeat IPC: 0.785465 cumulative IPC: 0.88791 (Simulation time: 0 hr 17 min 2 sec) 
Heartbeat CPU 0 instructions: 160000004 cycles: 180717198 heartbeat IPC: 0.799081 cumulative IPC: 0.881745 (Simulation time: 0 hr 18 min 20 sec) 
Heartbeat CPU 0 instructions: 170000003 cycles: 193163892 heartbeat IPC: 0.803426 cumulative IPC: 0.876688 (Simulation time: 0 hr 19 min 43 sec) 
Heartbeat CPU 0 instructions: 180000001 cycles: 205437541 heartbeat IPC: 0.814753 cumulative IPC: 0.872981 (Simulation time: 0 hr 21 min 13 sec) 
Heartbeat CPU 0 instructions: 190000002 cycles: 217862781 heartbeat IPC: 0.804814 cumulative IPC: 0.869086 (Simulation time: 0 hr 22 min 46 sec) 
Heartbeat CPU 0 instructions: 200000004 cycles: 230482535 heartbeat IPC: 0.792409 cumulative IPC: 0.864881 (Simulation time: 0 hr 24 min 23 sec) 
Heartbeat CPU 0 instructions: 210000004 cycles: 243011061 heartbeat IPC: 0.798178 cumulative IPC: 0.861436 (Simulation time: 0 hr 26 min 4 sec) 
Heartbeat CPU 0 instructions: 220000001 cycles: 255682353 heartbeat IPC: 0.789185 cumulative IPC: 0.85785 (Simulation time: 0 hr 27 min 50 sec) 
Heartbeat CPU 0 instructions: 230000001 cycles: 268352068 heartbeat IPC: 0.789284 cumulative IPC: 0.854608 (Simulation time: 0 hr 29 min 38 sec) 
Heartbeat CPU 0 instructions: 240000000 cycles: 281119266 heartbeat IPC: 0.783257 cumulative IPC: 0.851363 (Simulation time: 0 hr 31 min 30 sec) 
Heartbeat CPU 0 instructions: 250000000 cycles: 293670301 heartbeat IPC: 0.796747 cumulative IPC: 0.849026 (Simulation time: 0 hr 33 min 21 sec) 
Heartbeat CPU 0 instructions: 260000000 cycles: 306137252 heartbeat IPC: 0.802121 cumulative IPC: 0.847113 (Simulation time: 0 hr 35 min 11 sec) 
Heartbeat CPU 0 instructions: 270000000 cycles: 318706056 heartbeat IPC: 0.795621 cumulative IPC: 0.84508 (Simulation time: 0 hr 37 min 3 sec) 
Heartbeat CPU 0 instructions: 280000002 cycles: 331169948 heartbeat IPC: 0.802318 cumulative IPC: 0.843469 (Simulation time: 0 hr 38 min 54 sec) 
Heartbeat CPU 0 instructions: 290000003 cycles: 343669143 heartbeat IPC: 0.800052 cumulative IPC: 0.841888 (Simulation time: 0 hr 40 min 45 sec) 
Heartbeat CPU 0 instructions: 300000000 cycles: 356039646 heartbeat IPC: 0.808374 cumulative IPC: 0.840722 (Simulation time: 0 hr 42 min 34 sec) 
Heartbeat CPU 0 instructions: 310000001 cycles: 368566293 heartbeat IPC: 0.798298 cumulative IPC: 0.839279 (Simulation time: 0 hr 44 min 26 sec) 
Heartbeat CPU 0 instructions: 320000000 cycles: 381535392 heartbeat IPC: 0.771064 cumulative IPC: 0.836957 (Simulation time: 0 hr 46 min 20 sec) 
Heartbeat CPU 0 instructions: 330000003 cycles: 394093934 heartbeat IPC: 0.796271 cumulative IPC: 0.83566 (Simulation time: 0 hr 48 min 9 sec) 
Heartbeat CPU 0 instructions: 340000001 cycles: 406675927 heartbeat IPC: 0.794787 cumulative IPC: 0.834394 (Simulation time: 0 hr 50 min 1 sec) 
Heartbeat CPU 0 instructions: 350000003 cycles: 419169755 heartbeat IPC: 0.800395 cumulative IPC: 0.83338 (Simulation time: 0 hr 51 min 51 sec) 
Heartbeat CPU 0 instructions: 360000000 cycles: 431618676 heartbeat IPC: 0.803282 cumulative IPC: 0.832511 (Simulation time: 0 hr 53 min 42 sec) 
Heartbeat CPU 0 instructions: 370000001 cycles: 444125650 heartbeat IPC: 0.799554 cumulative IPC: 0.831582 (Simulation time: 0 hr 55 min 31 sec) 
Heartbeat CPU 0 instructions: 380000003 cycles: 456580467 heartbeat IPC: 0.802902 cumulative IPC: 0.830799 (Simulation time: 0 hr 57 min 22 sec) 
Heartbeat CPU 0 instructions: 390000002 cycles: 468819408 heartbeat IPC: 0.817064 cumulative IPC: 0.83044 (Simulation time: 0 hr 59 min 11 sec) 
Heartbeat CPU 0 instructions: 400000001 cycles: 481162133 heartbeat IPC: 0.810194 cumulative IPC: 0.82992 (Simulation time: 1 hr 1 min 1 sec) 
Heartbeat CPU 0 instructions: 410000001 cycles: 493800863 heartbeat IPC: 0.791219 cumulative IPC: 0.828929 (Simulation time: 1 hr 2 min 50 sec) 
Heartbeat CPU 0 instructions: 420000002 cycles: 506582722 heartbeat IPC: 0.782359 cumulative IPC: 0.827753 (Simulation time: 1 hr 4 min 43 sec) 
Heartbeat CPU 0 instructions: 430000000 cycles: 519467685 heartbeat IPC: 0.776098 cumulative IPC: 0.826471 (Simulation time: 1 hr 6 min 37 sec) 
Heartbeat CPU 0 instructions: 440000003 cycles: 531932941 heartbeat IPC: 0.80223 cumulative IPC: 0.825902 (Simulation time: 1 hr 8 min 29 sec) 
Heartbeat CPU 0 instructions: 450000001 cycles: 544362122 heartbeat IPC: 0.804558 cumulative IPC: 0.825414 (Simulation time: 1 hr 10 min 15 sec) 
Heartbeat CPU 0 instructions: 460000001 cycles: 556733496 heartbeat IPC: 0.808318 cumulative IPC: 0.825034 (Simulation time: 1 hr 12 min 4 sec) 
Heartbeat CPU 0 instructions: 470000000 cycles: 569312236 heartbeat IPC: 0.794992 cumulative IPC: 0.82437 (Simulation time: 1 hr 13 min 57 sec) 
Heartbeat CPU 0 instructions: 480000004 cycles: 581902366 heartbeat IPC: 0.794273 cumulative IPC: 0.823718 (Simulation time: 1 hr 15 min 50 sec) 
Heartbeat CPU 0 instructions: 490000001 cycles: 594329627 heartbeat IPC: 0.804682 cumulative IPC: 0.82332 (Simulation time: 1 hr 17 min 41 sec) 
Heartbeat CPU 0 instructions: 500000001 cycles: 606993861 heartbeat IPC: 0.789625 cumulative IPC: 0.822617 (Simulation time: 1 hr 19 min 33 sec) 
Heartbeat CPU 0 instructions: 510000002 cycles: 619715590 heartbeat IPC: 0.786057 cumulative IPC: 0.821866 (Simulation time: 1 hr 21 min 23 sec) 
Heartbeat CPU 0 instructions: 520000001 cycles: 632583375 heartbeat IPC: 0.777134 cumulative IPC: 0.820955 (Simulation time: 1 hr 23 min 16 sec) 
Heartbeat CPU 0 instructions: 530000001 cycles: 644954761 heartbeat IPC: 0.808317 cumulative IPC: 0.820713 (Simulation time: 1 hr 25 min 8 sec) 
Heartbeat CPU 0 instructions: 540000001 cycles: 657272979 heartbeat IPC: 0.811806 cumulative IPC: 0.820546 (Simulation time: 1 hr 26 min 59 sec) 
Heartbeat CPU 0 instructions: 550000002 cycles: 669734147 heartbeat IPC: 0.802493 cumulative IPC: 0.82021 (Simulation time: 1 hr 28 min 53 sec) 
Heartbeat CPU 0 instructions: 560000003 cycles: 682302169 heartbeat IPC: 0.79567 cumulative IPC: 0.819757 (Simulation time: 1 hr 30 min 46 sec) 
Heartbeat CPU 0 instructions: 570000001 cycles: 695138866 heartbeat IPC: 0.779016 cumulative IPC: 0.819004 (Simulation time: 1 hr 32 min 38 sec) 
Heartbeat CPU 0 instructions: 580000004 cycles: 707518701 heartbeat IPC: 0.807765 cumulative IPC: 0.818808 (Simulation time: 1 hr 34 min 29 sec) 
Heartbeat CPU 0 instructions: 590000003 cycles: 719911785 heartbeat IPC: 0.806902 cumulative IPC: 0.818603 (Simulation time: 1 hr 36 min 19 sec) 
Heartbeat CPU 0 instructions: 600000000 cycles: 732662247 heartbeat IPC: 0.784285 cumulative IPC: 0.818005 (Simulation time: 1 hr 38 min 7 sec) 
Heartbeat CPU 0 instructions: 610000001 cycles: 745137678 heartbeat IPC: 0.801576 cumulative IPC: 0.81773 (Simulation time: 1 hr 39 min 53 sec) 
Heartbeat CPU 0 instructions: 620000000 cycles: 757809701 heartbeat IPC: 0.78914 cumulative IPC: 0.817252 (Simulation time: 1 hr 41 min 38 sec) 
Heartbeat CPU 0 instructions: 630000004 cycles: 770196807 heartbeat IPC: 0.807291 cumulative IPC: 0.817091 (Simulation time: 1 hr 43 min 20 sec) 
Heartbeat CPU 0 instructions: 640000001 cycles: 782675034 heartbeat IPC: 0.801396 cumulative IPC: 0.816841 (Simulation time: 1 hr 45 min 2 sec) 
Heartbeat CPU 0 instructions: 650000000 cycles: 795390548 heartbeat IPC: 0.786441 cumulative IPC: 0.816355 (Simulation time: 1 hr 46 min 45 sec) 
Heartbeat CPU 0 instructions: 660000000 cycles: 807930971 heartbeat IPC: 0.797421 cumulative IPC: 0.816061 (Simulation time: 1 hr 48 min 25 sec) 
Heartbeat CPU 0 instructions: 670000000 cycles: 820424225 heartbeat IPC: 0.800432 cumulative IPC: 0.815823 (Simulation time: 1 hr 50 min 5 sec) 
Heartbeat CPU 0 instructions: 680000002 cycles: 833038399 heartbeat IPC: 0.792759 cumulative IPC: 0.815473 (Simulation time: 1 hr 51 min 43 sec) 
Heartbeat CPU 0 instructions: 690000003 cycles: 845488931 heartbeat IPC: 0.803179 cumulative IPC: 0.815292 (Simulation time: 1 hr 53 min 17 sec) 
Heartbeat CPU 0 instructions: 700000001 cycles: 858002227 heartbeat IPC: 0.79915 cumulative IPC: 0.815057 (Simulation time: 1 hr 54 min 53 sec) 
Heartbeat CPU 0 instructions: 710000004 cycles: 870957435 heartbeat IPC: 0.771891 cumulative IPC: 0.814414 (Simulation time: 1 hr 56 min 31 sec) 
Heartbeat CPU 0 instructions: 720000003 cycles: 883498181 heartbeat IPC: 0.797401 cumulative IPC: 0.814173 (Simulation time: 1 hr 58 min 7 sec) 
Heartbeat CPU 0 instructions: 730000000 cycles: 895883264 heartbeat IPC: 0.807423 cumulative IPC: 0.814079 (Simulation time: 1 hr 59 min 36 sec) 
Heartbeat CPU 0 instructions: 740000004 cycles: 908368790 heartbeat IPC: 0.800928 cumulative IPC: 0.813898 (Simulation time: 2 hr 1 min 0 sec) 
Heartbeat CPU 0 instructions: 750000000 cycles: 920925386 heartbeat IPC: 0.796394 cumulative IPC: 0.81366 (Simulation time: 2 hr 2 min 23 sec) 
Heartbeat CPU 0 instructions: 760000000 cycles: 933557379 heartbeat IPC: 0.791641 cumulative IPC: 0.813361 (Simulation time: 2 hr 3 min 42 sec) 
Heartbeat CPU 0 instructions: 770000000 cycles: 946270880 heartbeat IPC: 0.786565 cumulative IPC: 0.813001 (Simulation time: 2 hr 5 min 1 sec) 
Heartbeat CPU 0 instructions: 780000002 cycles: 958717933 heartbeat IPC: 0.803403 cumulative IPC: 0.812877 (Simulation time: 2 hr 6 min 17 sec) 
Heartbeat CPU 0 instructions: 790000002 cycles: 971125010 heartbeat IPC: 0.805992 cumulative IPC: 0.812789 (Simulation time: 2 hr 7 min 43 sec) 
Heartbeat CPU 0 instructions: 800000004 cycles: 984042462 heartbeat IPC: 0.774147 cumulative IPC: 0.812281 (Simulation time: 2 hr 9 min 11 sec) 
Heartbeat CPU 0 instructions: 810000001 cycles: 996663926 heartbeat IPC: 0.792301 cumulative IPC: 0.812028 (Simulation time: 2 hr 10 min 37 sec) 
Heartbeat CPU 0 instructions: 820000000 cycles: 1009099799 heartbeat IPC: 0.804125 cumulative IPC: 0.811931 (Simulation time: 2 hr 12 min 4 sec) 
Heartbeat CPU 0 instructions: 830000004 cycles: 1021616501 heartbeat IPC: 0.798933 cumulative IPC: 0.811771 (Simulation time: 2 hr 13 min 32 sec) 
Heartbeat CPU 0 instructions: 840000000 cycles: 1034212157 heartbeat IPC: 0.793924 cumulative IPC: 0.811554 (Simulation time: 2 hr 15 min 3 sec) 
Heartbeat CPU 0 instructions: 850000002 cycles: 1046949902 heartbeat IPC: 0.785068 cumulative IPC: 0.811232 (Simulation time: 2 hr 16 min 37 sec) 
Heartbeat CPU 0 instructions: 860000004 cycles: 1059451412 heartbeat IPC: 0.799904 cumulative IPC: 0.811098 (Simulation time: 2 hr 18 min 11 sec) 
Heartbeat CPU 0 instructions: 870000004 cycles: 1071864831 heartbeat IPC: 0.80558 cumulative IPC: 0.811034 (Simulation time: 2 hr 19 min 46 sec) 
Heartbeat CPU 0 instructions: 880000004 cycles: 1084363373 heartbeat IPC: 0.800093 cumulative IPC: 0.810908 (Simulation time: 2 hr 21 min 26 sec) 
Heartbeat CPU 0 instructions: 890000001 cycles: 1096909868 heartbeat IPC: 0.797035 cumulative IPC: 0.810749 (Simulation time: 2 hr 23 min 8 sec) 
Heartbeat CPU 0 instructions: 900000003 cycles: 1109800257 heartbeat IPC: 0.775772 cumulative IPC: 0.810343 (Simulation time: 2 hr 24 min 51 sec) 
Heartbeat CPU 0 instructions: 910000002 cycles: 1122249870 heartbeat IPC: 0.803238 cumulative IPC: 0.810264 (Simulation time: 2 hr 26 min 35 sec) 
Heartbeat CPU 0 instructions: 920000000 cycles: 1134765734 heartbeat IPC: 0.798986 cumulative IPC: 0.810139 (Simulation time: 2 hr 28 min 18 sec) 
Heartbeat CPU 0 instructions: 930000003 cycles: 1147216001 heartbeat IPC: 0.803196 cumulative IPC: 0.810064 (Simulation time: 2 hr 30 min 2 sec) 
Heartbeat CPU 0 instructions: 940000004 cycles: 1159671246 heartbeat IPC: 0.802875 cumulative IPC: 0.809987 (Simulation time: 2 hr 31 min 48 sec) 
Heartbeat CPU 0 instructions: 950000003 cycles: 1172378542 heartbeat IPC: 0.786949 cumulative IPC: 0.809737 (Simulation time: 2 hr 33 min 33 sec) 
Heartbeat CPU 0 instructions: 960000000 cycles: 1184903814 heartbeat IPC: 0.798386 cumulative IPC: 0.809617 (Simulation time: 2 hr 35 min 11 sec) 
Heartbeat CPU 0 instructions: 970000000 cycles: 1197347765 heartbeat IPC: 0.803603 cumulative IPC: 0.809554 (Simulation time: 2 hr 36 min 50 sec) 
Heartbeat CPU 0 instructions: 980000001 cycles: 1209797249 heartbeat IPC: 0.803246 cumulative IPC: 0.809489 (Simulation time: 2 hr 38 min 25 sec) 
Heartbeat CPU 0 instructions: 990000002 cycles: 1222721546 heartbeat IPC: 0.773737 cumulative IPC: 0.809111 (Simulation time: 2 hr 40 min 3 sec) 
Heartbeat CPU 0 instructions: 1000000003 cycles: 1235237731 heartbeat IPC: 0.798966 cumulative IPC: 0.809009 (Simulation time: 2 hr 41 min 37 sec) 
Finished CPU 0 instructions: 1000000004 cycles: 1236102735 cumulative IPC: 0.808994 (Simulation time: 2 hr 41 min 46 sec) 

ChampSim completed all CPUs

Region of Interest Statistics

CPU 0 cumulative IPC: 0.808994 instructions: 1000000004 cycles: 1236102735
cpu0_DTLB TOTAL     ACCESS:  202456698  HIT:  128941689  MISS:   73515009
cpu0_DTLB LOAD      ACCESS:  148226190  HIT:   81800541  MISS:   66425649
cpu0_DTLB RFO       ACCESS:   54230508  HIT:   47141148  MISS:    7089360
cpu0_DTLB PREFETCH  ACCESS:          0  HIT:          0  MISS:          0
cpu0_DTLB WRITEBACK ACCESS:          0  HIT:          0  MISS:          0
cpu0_DTLB TRANSLATION ACCESS:          0  HIT:          0  MISS:          0
cpu0_DTLB PREFETCH  REQUESTED:          0  ISSUED:          0  USEFUL:          0  USELESS:          0
cpu0_DTLB AVERAGE MISS LATENCY: 9.95171 cycles
cpu0_ITLB TOTAL     ACCESS:   18318416  HIT:   18318356  MISS:         60
cpu0_ITLB LOAD      ACCESS:   18318416  HIT:   18318356  MISS:         60
cpu0_ITLB RFO       ACCESS:          0  HIT:          0  MISS:          0
cpu0_ITLB PREFETCH  ACCESS:          0  HIT:          0  MISS:          0
cpu0_ITLB WRITEBACK ACCESS:          0  HIT:          0  MISS:          0
cpu0_ITLB TRANSLATION ACCESS:          0  HIT:          0  MISS:          0
cpu0_ITLB PREFETCH  REQUESTED:          0  ISSUED:          0  USEFUL:          0  USELESS:          0
cpu0_ITLB AVERAGE MISS LATENCY: 289.55 cycles
cpu0_L1I TOTAL     ACCESS:  101079675  HIT:  100688834  MISS:     390841
cpu0_L1I LOAD      ACCESS:  101079675  HIT:  100688834  MISS:     390841
cpu0_L1I RFO       ACCESS:          0  HIT:          0  MISS:          0
cpu0_L1I PREFETCH  ACCESS:          0  HIT:          0  MISS:          0
cpu0_L1I WRITEBACK ACCESS:          0  HIT:          0  MISS:          0
cpu0_L1I TRANSLATION ACCESS:          0  HIT:          0  MISS:          0
cpu0_L1I PREFETCH  REQUESTED:          0  ISSUED:          0  USEFUL:          0  USELESS:          0
cpu0_L1I AVERAGE MISS LATENCY: 15.1908 cycles
cpu0_STLB TOTAL     ACCESS:   73515069  HIT:   73396930  MISS:     118139
cpu0_STLB LOAD      ACCESS:   66425709  HIT:   66308049  MISS:     117660
cpu0_STLB RFO       ACCESS:    7089360  HIT:    7088881  MISS:        479
cpu0_STLB PREFETCH  ACCESS:          0  HIT:          0  MISS:          0
cpu0_STLB WRITEBACK ACCESS:          0  HIT:          0  MISS:          0
cpu0_STLB TRANSLATION ACCESS:          0  HIT:          0  MISS:          0
cpu0_STLB PREFETCH  REQUESTED:          0  ISSUED:          0  USEFUL:          0  USELESS:          0
cpu0_STLB AVERAGE MISS LATENCY: 379.939 cycles
cpu0_L1D TOTAL     ACCESS:  382347897  HIT:  243395308  MISS:  138952589
cpu0_L1D LOAD      ACCESS:  182124364  HIT:   76776772  MISS:  105347592
cpu0_L1D RFO       ACCESS:  110981556  HIT:  102909493  MISS:    8072063
cpu0_L1D PREFETCH  ACCESS:   89125268  HIT:   63699445  MISS:   25425823
cpu0_L1D WRITEBACK ACCESS:          0  HIT:          0  MISS:          0
cpu0_L1D TRANSLATION ACCESS:     116709  HIT:       9598  MISS:     107111
cpu0_L1D PREFETCH  REQUESTED:  186985389  ISSUED:   91194752  USEFUL:    2449889  USELESS:   23119184
cpu0_L1D AVERAGE MISS LATENCY: 61.3417 cycles
cpu0_L2C TOTAL     ACCESS:  145760963  HIT:   98822662  MISS:   46938301
cpu0_L2C LOAD      ACCESS:  104898109  HIT:   74306499  MISS:   30591610
cpu0_L2C RFO       ACCESS:    8047930  HIT:    3270844  MISS:    4777086
cpu0_L2C PREFETCH  ACCESS:   26096505  HIT:   14599572  MISS:   11496933
cpu0_L2C WRITEBACK ACCESS:    6611308  HIT:    6605938  MISS:       5370
cpu0_L2C TRANSLATION ACCESS:     107111  HIT:      39809  MISS:      67302
cpu0_L2C PREFETCH  REQUESTED:     536414  ISSUED:     536414  USEFUL:      49203  USELESS:      31543
cpu0_L2C AVERAGE MISS LATENCY: 143.596 cycles
LLC TOTAL     ACCESS:   49673887  HIT:   42086938  MISS:    7586949
LLC LOAD      ACCESS:   30587787  HIT:   26772007  MISS:    3815780
LLC RFO       ACCESS:    4604509  HIT:    4574326  MISS:      30183
LLC PREFETCH  ACCESS:   11500076  HIT:    7779385  MISS:    3720691
LLC WRITEBACK ACCESS:    2914213  HIT:    2909125  MISS:       5088
LLC TRANSLATION ACCESS:      67302  HIT:      52095  MISS:      15207
LLC PREFETCH  REQUESTED:          0  ISSUED:          0  USEFUL:          0  USELESS:          0
LLC AVERAGE MISS LATENCY: 722.191 cycles
OPTgen accesses: 555127
OPTgen hits: 556293
OPTgen hit rate: 100.21



DRAM Statistics
 CHANNEL 0
 RQ ROW_BUFFER_HIT:       1392  ROW_BUFFER_MISS:    7580301
 DBUS AVG_CONGESTED_CYCLE:     3.9679
 WQ ROW_BUFFER_HIT:      65373  ROW_BUFFER_MISS:     870734  FULL:          0


CPU 0 Branch Prediction Accuracy: 99.5942% MPKI: 0.006523 Average ROB Occupancy at Mispredict: 81.2713
Branch type MPKI
BRANCH_DIRECT_JUMP: 5.6e-05
BRANCH_INDIRECT: 8.7e-05
BRANCH_CONDITIONAL: 0.005219
BRANCH_DIRECT_CALL: 0.000659
BRANCH_INDIRECT_CALL: 3e-06
BRANCH_RETURN: 0.000499

