
*** ChampSim Multicore Out-of-Order Simulator ***

Warmup Instructions: 1000000
Simulation Instructions: 1000000000
Number of CPUs: 1
Off-chip DRAM Size: 4 GiB Channels: 1 Width: 64-bit Data Rate: 3200 MT/s

VirtualMemory physical capacity: 8588881920 num_ppages: 2096895
VirtualMemory page size: 4096 log2_page_size: 12

CPU 0 runs tracer/pin/traces/spec2k6/410.bwaves-945B.champsimtrace.xz
Basic BTB sets: 1024 ways: 8 indirect buffer size: 4096 RAS size: 64
cpu0_L1D next line prefetcher
cpu0_L2C IP-based stride prefetcher
Initialize Hawkeye state
WARNING: The extended signature CACHE::prefetch_line(ip, base_addr, pf_addr, fill_this_level, prefetch_metadata) is deprecated.
WARNING: Use CACHE::prefetch_line(pf_addr, fill_this_level, prefetch_metadata) instead.

Warmup complete CPU 0 instructions: 1000002 cycles: 250087 (Simulation time: 0 hr 0 min 2 sec) 

Heartbeat CPU 0 instructions: 10000000 cycles: 5287855 heartbeat IPC: 1.89113 cumulative IPC: 1.78651 (Simulation time: 0 hr 0 min 29 sec) 
Heartbeat CPU 0 instructions: 20000003 cycles: 10846351 heartbeat IPC: 1.79905 cumulative IPC: 1.79308 (Simulation time: 0 hr 1 min 0 sec) 
Heartbeat CPU 0 instructions: 30000000 cycles: 16392777 heartbeat IPC: 1.80296 cumulative IPC: 1.79648 (Simulation time: 0 hr 1 min 32 sec) 
Heartbeat CPU 0 instructions: 40000001 cycles: 21977180 heartbeat IPC: 1.7907 cumulative IPC: 1.79499 (Simulation time: 0 hr 2 min 4 sec) 
Heartbeat CPU 0 instructions: 50000001 cycles: 27514998 heartbeat IPC: 1.80577 cumulative IPC: 1.79718 (Simulation time: 0 hr 2 min 36 sec) 
Heartbeat CPU 0 instructions: 60000003 cycles: 33094905 heartbeat IPC: 1.79214 cumulative IPC: 1.79633 (Simulation time: 0 hr 3 min 8 sec) 
Heartbeat CPU 0 instructions: 70000000 cycles: 38644517 heartbeat IPC: 1.80193 cumulative IPC: 1.79714 (Simulation time: 0 hr 3 min 39 sec) 
Heartbeat CPU 0 instructions: 80000002 cycles: 44193873 heartbeat IPC: 1.80201 cumulative IPC: 1.79775 (Simulation time: 0 hr 4 min 17 sec) 
Heartbeat CPU 0 instructions: 90000004 cycles: 49743868 heartbeat IPC: 1.8018 cumulative IPC: 1.79821 (Simulation time: 0 hr 4 min 53 sec) 
Heartbeat CPU 0 instructions: 100000003 cycles: 55326012 heartbeat IPC: 1.79143 cumulative IPC: 1.79752 (Simulation time: 0 hr 5 min 28 sec) 
Heartbeat CPU 0 instructions: 110000001 cycles: 60873170 heartbeat IPC: 1.80272 cumulative IPC: 1.79799 (Simulation time: 0 hr 6 min 6 sec) 
Heartbeat CPU 0 instructions: 120000002 cycles: 66408097 heartbeat IPC: 1.80671 cumulative IPC: 1.79872 (Simulation time: 0 hr 6 min 47 sec) 
Heartbeat CPU 0 instructions: 130000004 cycles: 71967795 heartbeat IPC: 1.79866 cumulative IPC: 1.79872 (Simulation time: 0 hr 7 min 26 sec) 
Heartbeat CPU 0 instructions: 140000000 cycles: 77558278 heartbeat IPC: 1.78875 cumulative IPC: 1.798 (Simulation time: 0 hr 8 min 5 sec) 
Heartbeat CPU 0 instructions: 150000000 cycles: 83120360 heartbeat IPC: 1.79789 cumulative IPC: 1.79799 (Simulation time: 0 hr 8 min 43 sec) 
Heartbeat CPU 0 instructions: 160000000 cycles: 88806085 heartbeat IPC: 1.75879 cumulative IPC: 1.79547 (Simulation time: 0 hr 9 min 19 sec) 
Heartbeat CPU 0 instructions: 170000004 cycles: 94498217 heartbeat IPC: 1.75681 cumulative IPC: 1.79314 (Simulation time: 0 hr 9 min 57 sec) 
Heartbeat CPU 0 instructions: 180000004 cycles: 100132271 heartbeat IPC: 1.77492 cumulative IPC: 1.79211 (Simulation time: 0 hr 10 min 34 sec) 
Heartbeat CPU 0 instructions: 190000003 cycles: 105679444 heartbeat IPC: 1.80272 cumulative IPC: 1.79267 (Simulation time: 0 hr 11 min 13 sec) 
Heartbeat CPU 0 instructions: 200000003 cycles: 111284170 heartbeat IPC: 1.78421 cumulative IPC: 1.79224 (Simulation time: 0 hr 11 min 52 sec) 
Heartbeat CPU 0 instructions: 210000003 cycles: 116832599 heartbeat IPC: 1.80231 cumulative IPC: 1.79272 (Simulation time: 0 hr 12 min 27 sec) 
Heartbeat CPU 0 instructions: 220000001 cycles: 122377139 heartbeat IPC: 1.80358 cumulative IPC: 1.79321 (Simulation time: 0 hr 13 min 6 sec) 
Heartbeat CPU 0 instructions: 230000002 cycles: 127955922 heartbeat IPC: 1.79251 cumulative IPC: 1.79318 (Simulation time: 0 hr 13 min 47 sec) 
Heartbeat CPU 0 instructions: 240000000 cycles: 133824747 heartbeat IPC: 1.70392 cumulative IPC: 1.78926 (Simulation time: 0 hr 14 min 30 sec) 
Heartbeat CPU 0 instructions: 250000000 cycles: 139493235 heartbeat IPC: 1.76414 cumulative IPC: 1.78824 (Simulation time: 0 hr 15 min 16 sec) 
Heartbeat CPU 0 instructions: 260000001 cycles: 145229774 heartbeat IPC: 1.74321 cumulative IPC: 1.78646 (Simulation time: 0 hr 16 min 2 sec) 
Heartbeat CPU 0 instructions: 270000003 cycles: 150766742 heartbeat IPC: 1.80604 cumulative IPC: 1.78718 (Simulation time: 0 hr 16 min 44 sec) 
Heartbeat CPU 0 instructions: 280000001 cycles: 156466342 heartbeat IPC: 1.75451 cumulative IPC: 1.78599 (Simulation time: 0 hr 17 min 25 sec) 
Heartbeat CPU 0 instructions: 290000004 cycles: 162135462 heartbeat IPC: 1.76394 cumulative IPC: 1.78521 (Simulation time: 0 hr 18 min 8 sec) 
Heartbeat CPU 0 instructions: 300000003 cycles: 168131120 heartbeat IPC: 1.66787 cumulative IPC: 1.78102 (Simulation time: 0 hr 18 min 51 sec) 
Heartbeat CPU 0 instructions: 310000000 cycles: 173683941 heartbeat IPC: 1.80089 cumulative IPC: 1.78166 (Simulation time: 0 hr 19 min 40 sec) 
Heartbeat CPU 0 instructions: 320000003 cycles: 179285709 heartbeat IPC: 1.78515 cumulative IPC: 1.78177 (Simulation time: 0 hr 20 min 28 sec) 
Heartbeat CPU 0 instructions: 330000003 cycles: 184863423 heartbeat IPC: 1.79285 cumulative IPC: 1.7821 (Simulation time: 0 hr 21 min 18 sec) 
Heartbeat CPU 0 instructions: 340000003 cycles: 190409501 heartbeat IPC: 1.80308 cumulative IPC: 1.78271 (Simulation time: 0 hr 22 min 8 sec) 
Heartbeat CPU 0 instructions: 350000000 cycles: 195960698 heartbeat IPC: 1.80141 cumulative IPC: 1.78325 (Simulation time: 0 hr 22 min 52 sec) 
Heartbeat CPU 0 instructions: 360000000 cycles: 201570461 heartbeat IPC: 1.78261 cumulative IPC: 1.78323 (Simulation time: 0 hr 23 min 41 sec) 
Heartbeat CPU 0 instructions: 370000000 cycles: 207122194 heartbeat IPC: 1.80124 cumulative IPC: 1.78371 (Simulation time: 0 hr 24 min 30 sec) 
Heartbeat CPU 0 instructions: 380000002 cycles: 212661605 heartbeat IPC: 1.80525 cumulative IPC: 1.78427 (Simulation time: 0 hr 25 min 18 sec) 
Heartbeat CPU 0 instructions: 390000002 cycles: 218262954 heartbeat IPC: 1.78528 cumulative IPC: 1.7843 (Simulation time: 0 hr 26 min 11 sec) 
Heartbeat CPU 0 instructions: 400000002 cycles: 224055225 heartbeat IPC: 1.72644 cumulative IPC: 1.7828 (Simulation time: 0 hr 27 min 3 sec) 
Heartbeat CPU 0 instructions: 410000003 cycles: 229599277 heartbeat IPC: 1.80374 cumulative IPC: 1.78331 (Simulation time: 0 hr 27 min 55 sec) 
Heartbeat CPU 0 instructions: 420000003 cycles: 235201299 heartbeat IPC: 1.78507 cumulative IPC: 1.78335 (Simulation time: 0 hr 28 min 49 sec) 
Heartbeat CPU 0 instructions: 430000004 cycles: 240744669 heartbeat IPC: 1.80396 cumulative IPC: 1.78382 (Simulation time: 0 hr 29 min 39 sec) 
Heartbeat CPU 0 instructions: 440000003 cycles: 246274535 heartbeat IPC: 1.80836 cumulative IPC: 1.78438 (Simulation time: 0 hr 30 min 30 sec) 
Heartbeat CPU 0 instructions: 450000003 cycles: 251836114 heartbeat IPC: 1.79805 cumulative IPC: 1.78468 (Simulation time: 0 hr 31 min 21 sec) 
Heartbeat CPU 0 instructions: 460000004 cycles: 257434508 heartbeat IPC: 1.78623 cumulative IPC: 1.78471 (Simulation time: 0 hr 32 min 11 sec) 
Heartbeat CPU 0 instructions: 470000002 cycles: 262980939 heartbeat IPC: 1.80296 cumulative IPC: 1.7851 (Simulation time: 0 hr 33 min 1 sec) 
Heartbeat CPU 0 instructions: 480000002 cycles: 268526245 heartbeat IPC: 1.80333 cumulative IPC: 1.78547 (Simulation time: 0 hr 33 min 45 sec) 
Heartbeat CPU 0 instructions: 490000003 cycles: 274078049 heartbeat IPC: 1.80122 cumulative IPC: 1.78579 (Simulation time: 0 hr 34 min 25 sec) 
Heartbeat CPU 0 instructions: 500000000 cycles: 279657023 heartbeat IPC: 1.79244 cumulative IPC: 1.78593 (Simulation time: 0 hr 35 min 4 sec) 
Heartbeat CPU 0 instructions: 510000001 cycles: 285223343 heartbeat IPC: 1.79652 cumulative IPC: 1.78613 (Simulation time: 0 hr 35 min 47 sec) 
Heartbeat CPU 0 instructions: 520000002 cycles: 290785780 heartbeat IPC: 1.79777 cumulative IPC: 1.78636 (Simulation time: 0 hr 36 min 30 sec) 
Heartbeat CPU 0 instructions: 530000004 cycles: 296332969 heartbeat IPC: 1.80272 cumulative IPC: 1.78666 (Simulation time: 0 hr 37 min 12 sec) 
Heartbeat CPU 0 instructions: 540000000 cycles: 301879063 heartbeat IPC: 1.80307 cumulative IPC: 1.78696 (Simulation time: 0 hr 38 min 0 sec) 
Heartbeat CPU 0 instructions: 550000002 cycles: 307423044 heartbeat IPC: 1.80376 cumulative IPC: 1.78727 (Simulation time: 0 hr 38 min 49 sec) 
Heartbeat CPU 0 instructions: 560000000 cycles: 312976364 heartbeat IPC: 1.80072 cumulative IPC: 1.78751 (Simulation time: 0 hr 39 min 37 sec) 
Heartbeat CPU 0 instructions: 570000001 cycles: 318513735 heartbeat IPC: 1.80591 cumulative IPC: 1.78783 (Simulation time: 0 hr 40 min 26 sec) 
Heartbeat CPU 0 instructions: 580000000 cycles: 324069122 heartbeat IPC: 1.80005 cumulative IPC: 1.78804 (Simulation time: 0 hr 41 min 13 sec) 
Heartbeat CPU 0 instructions: 590000001 cycles: 329607626 heartbeat IPC: 1.80554 cumulative IPC: 1.78833 (Simulation time: 0 hr 42 min 3 sec) 
Heartbeat CPU 0 instructions: 600000003 cycles: 335151254 heartbeat IPC: 1.80387 cumulative IPC: 1.78859 (Simulation time: 0 hr 42 min 53 sec) 
Heartbeat CPU 0 instructions: 610000000 cycles: 340694084 heartbeat IPC: 1.80413 cumulative IPC: 1.78884 (Simulation time: 0 hr 43 min 39 sec) 
Heartbeat CPU 0 instructions: 620000003 cycles: 346226889 heartbeat IPC: 1.8074 cumulative IPC: 1.78914 (Simulation time: 0 hr 44 min 30 sec) 
Heartbeat CPU 0 instructions: 630000002 cycles: 351770256 heartbeat IPC: 1.80396 cumulative IPC: 1.78937 (Simulation time: 0 hr 45 min 16 sec) 
Heartbeat CPU 0 instructions: 640000003 cycles: 357334435 heartbeat IPC: 1.79721 cumulative IPC: 1.78949 (Simulation time: 0 hr 46 min 9 sec) 
Heartbeat CPU 0 instructions: 650000001 cycles: 362875905 heartbeat IPC: 1.80457 cumulative IPC: 1.78972 (Simulation time: 0 hr 46 min 59 sec) 
Heartbeat CPU 0 instructions: 660000004 cycles: 368410116 heartbeat IPC: 1.80694 cumulative IPC: 1.78998 (Simulation time: 0 hr 47 min 48 sec) 
Heartbeat CPU 0 instructions: 670000002 cycles: 373957663 heartbeat IPC: 1.8026 cumulative IPC: 1.79017 (Simulation time: 0 hr 48 min 39 sec) 
Heartbeat CPU 0 instructions: 680000001 cycles: 379502329 heartbeat IPC: 1.80353 cumulative IPC: 1.79037 (Simulation time: 0 hr 49 min 30 sec) 
Heartbeat CPU 0 instructions: 690000004 cycles: 385046130 heartbeat IPC: 1.80382 cumulative IPC: 1.79056 (Simulation time: 0 hr 50 min 23 sec) 
Heartbeat CPU 0 instructions: 700000002 cycles: 390581815 heartbeat IPC: 1.80646 cumulative IPC: 1.79078 (Simulation time: 0 hr 51 min 14 sec) 
Heartbeat CPU 0 instructions: 710000003 cycles: 396105470 heartbeat IPC: 1.8104 cumulative IPC: 1.79106 (Simulation time: 0 hr 52 min 7 sec) 
Heartbeat CPU 0 instructions: 720000003 cycles: 401653535 heartbeat IPC: 1.80243 cumulative IPC: 1.79122 (Simulation time: 0 hr 52 min 55 sec) 
Heartbeat CPU 0 instructions: 730000001 cycles: 407194785 heartbeat IPC: 1.80465 cumulative IPC: 1.7914 (Simulation time: 0 hr 53 min 43 sec) 
Heartbeat CPU 0 instructions: 740000000 cycles: 412743295 heartbeat IPC: 1.80229 cumulative IPC: 1.79154 (Simulation time: 0 hr 54 min 31 sec) 
Heartbeat CPU 0 instructions: 750000001 cycles: 418296688 heartbeat IPC: 1.8007 cumulative IPC: 1.79167 (Simulation time: 0 hr 55 min 20 sec) 
Heartbeat CPU 0 instructions: 760000004 cycles: 423833553 heartbeat IPC: 1.80608 cumulative IPC: 1.79185 (Simulation time: 0 hr 56 min 7 sec) 
Heartbeat CPU 0 instructions: 770000003 cycles: 429402139 heartbeat IPC: 1.79579 cumulative IPC: 1.79191 (Simulation time: 0 hr 56 min 58 sec) 
Heartbeat CPU 0 instructions: 780000003 cycles: 434954840 heartbeat IPC: 1.80093 cumulative IPC: 1.79202 (Simulation time: 0 hr 57 min 47 sec) 
Heartbeat CPU 0 instructions: 790000000 cycles: 440506146 heartbeat IPC: 1.80138 cumulative IPC: 1.79214 (Simulation time: 0 hr 58 min 38 sec) 
Heartbeat CPU 0 instructions: 800000001 cycles: 446064732 heartbeat IPC: 1.79902 cumulative IPC: 1.79222 (Simulation time: 0 hr 59 min 26 sec) 
Heartbeat CPU 0 instructions: 810000001 cycles: 451616489 heartbeat IPC: 1.80123 cumulative IPC: 1.79234 (Simulation time: 1 hr 0 min 14 sec) 
Heartbeat CPU 0 instructions: 820000000 cycles: 457201298 heartbeat IPC: 1.79057 cumulative IPC: 1.79231 (Simulation time: 1 hr 1 min 3 sec) 
Heartbeat CPU 0 instructions: 830000003 cycles: 462892271 heartbeat IPC: 1.75717 cumulative IPC: 1.79188 (Simulation time: 1 hr 1 min 55 sec) 
Heartbeat CPU 0 instructions: 840000000 cycles: 468571778 heartbeat IPC: 1.76072 cumulative IPC: 1.7915 (Simulation time: 1 hr 2 min 43 sec) 
Heartbeat CPU 0 instructions: 850000004 cycles: 474584585 heartbeat IPC: 1.66312 cumulative IPC: 1.78988 (Simulation time: 1 hr 3 min 30 sec) 
Heartbeat CPU 0 instructions: 860000001 cycles: 480137248 heartbeat IPC: 1.80094 cumulative IPC: 1.79 (Simulation time: 1 hr 4 min 21 sec) 
Heartbeat CPU 0 instructions: 870000004 cycles: 485881831 heartbeat IPC: 1.74077 cumulative IPC: 1.78942 (Simulation time: 1 hr 5 min 8 sec) 
Heartbeat CPU 0 instructions: 880000001 cycles: 491443545 heartbeat IPC: 1.79801 cumulative IPC: 1.78952 (Simulation time: 1 hr 5 min 53 sec) 
Heartbeat CPU 0 instructions: 890000001 cycles: 496987720 heartbeat IPC: 1.80369 cumulative IPC: 1.78968 (Simulation time: 1 hr 6 min 37 sec) 
Heartbeat CPU 0 instructions: 900000000 cycles: 502715029 heartbeat IPC: 1.74602 cumulative IPC: 1.78918 (Simulation time: 1 hr 7 min 21 sec) 
Heartbeat CPU 0 instructions: 910000004 cycles: 508250908 heartbeat IPC: 1.8064 cumulative IPC: 1.78937 (Simulation time: 1 hr 8 min 5 sec) 
Heartbeat CPU 0 instructions: 920000003 cycles: 513802469 heartbeat IPC: 1.8013 cumulative IPC: 1.7895 (Simulation time: 1 hr 8 min 48 sec) 
Heartbeat CPU 0 instructions: 930000002 cycles: 519432091 heartbeat IPC: 1.77632 cumulative IPC: 1.78935 (Simulation time: 1 hr 9 min 32 sec) 
Heartbeat CPU 0 instructions: 940000001 cycles: 524985638 heartbeat IPC: 1.80065 cumulative IPC: 1.78947 (Simulation time: 1 hr 10 min 16 sec) 
Heartbeat CPU 0 instructions: 950000003 cycles: 530524329 heartbeat IPC: 1.80548 cumulative IPC: 1.78964 (Simulation time: 1 hr 11 min 0 sec) 
Heartbeat CPU 0 instructions: 960000003 cycles: 536191526 heartbeat IPC: 1.76454 cumulative IPC: 1.78937 (Simulation time: 1 hr 11 min 43 sec) 
Heartbeat CPU 0 instructions: 970000001 cycles: 541734471 heartbeat IPC: 1.80409 cumulative IPC: 1.78953 (Simulation time: 1 hr 12 min 26 sec) 
Heartbeat CPU 0 instructions: 980000002 cycles: 547397504 heartbeat IPC: 1.76584 cumulative IPC: 1.78928 (Simulation time: 1 hr 13 min 9 sec) 
Heartbeat CPU 0 instructions: 990000004 cycles: 552925236 heartbeat IPC: 1.80906 cumulative IPC: 1.78948 (Simulation time: 1 hr 13 min 52 sec) 
Heartbeat CPU 0 instructions: 1000000000 cycles: 558562594 heartbeat IPC: 1.77388 cumulative IPC: 1.78932 (Simulation time: 1 hr 14 min 35 sec) 
Finished CPU 0 instructions: 1000000000 cycles: 558866560 cumulative IPC: 1.78934 (Simulation time: 1 hr 14 min 39 sec) 

ChampSim completed all CPUs

Region of Interest Statistics

CPU 0 cumulative IPC: 1.78934 instructions: 1000000000 cycles: 558866560
cpu0_DTLB TOTAL     ACCESS:  173022782  HIT:  173022210  MISS:        572
cpu0_DTLB LOAD      ACCESS:   87001961  HIT:   87001896  MISS:         65
cpu0_DTLB RFO       ACCESS:   86020821  HIT:   86020314  MISS:        507
cpu0_DTLB PREFETCH  ACCESS:          0  HIT:          0  MISS:          0
cpu0_DTLB WRITEBACK ACCESS:          0  HIT:          0  MISS:          0
cpu0_DTLB TRANSLATION ACCESS:          0  HIT:          0  MISS:          0
cpu0_DTLB PREFETCH  REQUESTED:          0  ISSUED:          0  USEFUL:          0  USELESS:          0
cpu0_DTLB AVERAGE MISS LATENCY: 219.776 cycles
cpu0_ITLB TOTAL     ACCESS:   90032629  HIT:   90032623  MISS:          6
cpu0_ITLB LOAD      ACCESS:   90032629  HIT:   90032623  MISS:          6
cpu0_ITLB RFO       ACCESS:          0  HIT:          0  MISS:          0
cpu0_ITLB PREFETCH  ACCESS:          0  HIT:          0  MISS:          0
cpu0_ITLB WRITEBACK ACCESS:          0  HIT:          0  MISS:          0
cpu0_ITLB TRANSLATION ACCESS:          0  HIT:          0  MISS:          0
cpu0_ITLB PREFETCH  REQUESTED:          0  ISSUED:          0  USEFUL:          0  USELESS:          0
cpu0_ITLB AVERAGE MISS LATENCY: 222.667 cycles
cpu0_L1I TOTAL     ACCESS:    3391514  HIT:    3391318  MISS:        196
cpu0_L1I LOAD      ACCESS:    3391514  HIT:    3391318  MISS:        196
cpu0_L1I RFO       ACCESS:          0  HIT:          0  MISS:          0
cpu0_L1I PREFETCH  ACCESS:          0  HIT:          0  MISS:          0
cpu0_L1I WRITEBACK ACCESS:          0  HIT:          0  MISS:          0
cpu0_L1I TRANSLATION ACCESS:          0  HIT:          0  MISS:          0
cpu0_L1I PREFETCH  REQUESTED:          0  ISSUED:          0  USEFUL:          0  USELESS:          0
cpu0_L1I AVERAGE MISS LATENCY: 342.378 cycles
cpu0_STLB TOTAL     ACCESS:        578  HIT:          9  MISS:        569
cpu0_STLB LOAD      ACCESS:         71  HIT:          6  MISS:         65
cpu0_STLB RFO       ACCESS:        507  HIT:          3  MISS:        504
cpu0_STLB PREFETCH  ACCESS:          0  HIT:          0  MISS:          0
cpu0_STLB WRITEBACK ACCESS:          0  HIT:          0  MISS:          0
cpu0_STLB TRANSLATION ACCESS:          0  HIT:          0  MISS:          0
cpu0_STLB PREFETCH  REQUESTED:          0  ISSUED:          0  USEFUL:          0  USELESS:          0
cpu0_STLB AVERAGE MISS LATENCY: 214.141 cycles
cpu0_L1D TOTAL     ACCESS:  336552585  HIT:  336512543  MISS:      40042
cpu0_L1D LOAD      ACCESS:  119619144  HIT:  119617848  MISS:       1296
cpu0_L1D RFO       ACCESS:   97703112  HIT:   97670224  MISS:      32888
cpu0_L1D PREFETCH  ACCESS:  119229758  HIT:  119223954  MISS:       5804
cpu0_L1D WRITEBACK ACCESS:          0  HIT:          0  MISS:          0
cpu0_L1D TRANSLATION ACCESS:        571  HIT:        517  MISS:         54
cpu0_L1D PREFETCH  REQUESTED:  119619752  ISSUED:  119235567  USEFUL:       6406  USELESS:        159
cpu0_L1D AVERAGE MISS LATENCY: 366.739 cycles
cpu0_L2C TOTAL     ACCESS:      75656  HIT:      39418  MISS:      36238
cpu0_L2C LOAD      ACCESS:        739  HIT:        421  MISS:        318
cpu0_L2C RFO       ACCESS:      32877  HIT:        666  MISS:      32211
cpu0_L2C PREFETCH  ACCESS:       8866  HIT:       5320  MISS:       3546
cpu0_L2C WRITEBACK ACCESS:      33120  HIT:      32962  MISS:        158
cpu0_L2C TRANSLATION ACCESS:         54  HIT:         49  MISS:          5
cpu0_L2C PREFETCH  REQUESTED:       2668  ISSUED:       2335  USEFUL:         69  USELESS:         49
cpu0_L2C AVERAGE MISS LATENCY: 403.181 cycles
LLC TOTAL     ACCESS:      64823  HIT:      28041  MISS:      36782
LLC LOAD      ACCESS:        318  HIT:         36  MISS:        282
LLC RFO       ACCESS:      32211  HIT:         84  MISS:      32127
LLC PREFETCH  ACCESS:       3567  HIT:         86  MISS:       3481
LLC WRITEBACK ACCESS:      28722  HIT:      27834  MISS:        888
LLC TRANSLATION ACCESS:          5  HIT:          1  MISS:          4
LLC PREFETCH  REQUESTED:          0  ISSUED:          0  USEFUL:          0  USELESS:          0
LLC AVERAGE MISS LATENCY: 371.132 cycles
OPTgen accesses: 515
OPTgen hits: 5
OPTgen hit rate: 0.970874



DRAM Statistics
 CHANNEL 0
 RQ ROW_BUFFER_HIT:        121  ROW_BUFFER_MISS:      35773
 DBUS AVG_CONGESTED_CYCLE:    3.79052
 WQ ROW_BUFFER_HIT:        250  ROW_BUFFER_MISS:       3143  FULL:          0


CPU 0 Branch Prediction Accuracy: 94.2409% MPKI: 6.30516 Average ROB Occupancy at Mispredict: 84.3187
Branch type MPKI
BRANCH_DIRECT_JUMP: 2.4e-05
BRANCH_INDIRECT: 0
BRANCH_CONDITIONAL: 6.30508
BRANCH_DIRECT_CALL: 3e-05
BRANCH_INDIRECT_CALL: 0
BRANCH_RETURN: 3.2e-05

