
*** ChampSim Multicore Out-of-Order Simulator ***

Warmup Instructions: 1000000
Simulation Instructions: 1000000000
Number of CPUs: 1
Off-chip DRAM Size: 4 GiB Channels: 1 Width: 64-bit Data Rate: 3200 MT/s

VirtualMemory physical capacity: 8588881920 num_ppages: 2096895
VirtualMemory page size: 4096 log2_page_size: 12

CPU 0 runs tracer/pin/traces/spec2k17/657.xz_s-3167B.champsimtrace.xz
Basic BTB sets: 1024 ways: 8 indirect buffer size: 4096 RAS size: 64
cpu0_L1D next line prefetcher
cpu0_L2C IP-based stride prefetcher
Initialize Hawkeye state
WARNING: The extended signature CACHE::prefetch_line(ip, base_addr, pf_addr, fill_this_level, prefetch_metadata) is deprecated.
WARNING: Use CACHE::prefetch_line(pf_addr, fill_this_level, prefetch_metadata) instead.

Warmup complete CPU 0 instructions: 1000002 cycles: 250248 (Simulation time: 0 hr 0 min 3 sec) 

Heartbeat CPU 0 instructions: 10000002 cycles: 8586759 heartbeat IPC: 1.16458 cumulative IPC: 1.07959 (Simulation time: 0 hr 0 min 48 sec) 
Heartbeat CPU 0 instructions: 20000000 cycles: 15408126 heartbeat IPC: 1.46598 cumulative IPC: 1.25347 (Simulation time: 0 hr 1 min 31 sec) 
Heartbeat CPU 0 instructions: 30000000 cycles: 23624343 heartbeat IPC: 1.21711 cumulative IPC: 1.24069 (Simulation time: 0 hr 2 min 17 sec) 
Heartbeat CPU 0 instructions: 40000001 cycles: 32937263 heartbeat IPC: 1.07378 cumulative IPC: 1.19313 (Simulation time: 0 hr 3 min 4 sec) 
Heartbeat CPU 0 instructions: 50000002 cycles: 42089990 heartbeat IPC: 1.09257 cumulative IPC: 1.17114 (Simulation time: 0 hr 3 min 50 sec) 
Heartbeat CPU 0 instructions: 60000003 cycles: 50129819 heartbeat IPC: 1.24381 cumulative IPC: 1.18285 (Simulation time: 0 hr 4 min 33 sec) 
Heartbeat CPU 0 instructions: 70000000 cycles: 57432270 heartbeat IPC: 1.3694 cumulative IPC: 1.20667 (Simulation time: 0 hr 5 min 15 sec) 
Heartbeat CPU 0 instructions: 80000002 cycles: 65129264 heartbeat IPC: 1.29921 cumulative IPC: 1.21765 (Simulation time: 0 hr 5 min 57 sec) 
Heartbeat CPU 0 instructions: 90000001 cycles: 71885165 heartbeat IPC: 1.48019 cumulative IPC: 1.24241 (Simulation time: 0 hr 6 min 40 sec) 
Heartbeat CPU 0 instructions: 100000001 cycles: 79568649 heartbeat IPC: 1.30149 cumulative IPC: 1.24813 (Simulation time: 0 hr 7 min 23 sec) 
Heartbeat CPU 0 instructions: 110000001 cycles: 87082784 heartbeat IPC: 1.33083 cumulative IPC: 1.25529 (Simulation time: 0 hr 8 min 5 sec) 
Heartbeat CPU 0 instructions: 120000002 cycles: 93674428 heartbeat IPC: 1.51707 cumulative IPC: 1.27376 (Simulation time: 0 hr 8 min 46 sec) 
Heartbeat CPU 0 instructions: 130000003 cycles: 99254031 heartbeat IPC: 1.79224 cumulative IPC: 1.30298 (Simulation time: 0 hr 9 min 25 sec) 
Heartbeat CPU 0 instructions: 140000003 cycles: 106091337 heartbeat IPC: 1.46256 cumulative IPC: 1.31329 (Simulation time: 0 hr 10 min 7 sec) 
Heartbeat CPU 0 instructions: 150000000 cycles: 111820128 heartbeat IPC: 1.74557 cumulative IPC: 1.33549 (Simulation time: 0 hr 10 min 46 sec) 
Heartbeat CPU 0 instructions: 160000002 cycles: 117244488 heartbeat IPC: 1.84354 cumulative IPC: 1.35904 (Simulation time: 0 hr 11 min 23 sec) 
Heartbeat CPU 0 instructions: 170000001 cycles: 124761408 heartbeat IPC: 1.33033 cumulative IPC: 1.35731 (Simulation time: 0 hr 12 min 6 sec) 
Heartbeat CPU 0 instructions: 180000003 cycles: 134446046 heartbeat IPC: 1.03256 cumulative IPC: 1.33387 (Simulation time: 0 hr 12 min 50 sec) 
Heartbeat CPU 0 instructions: 190000004 cycles: 146192445 heartbeat IPC: 0.851325 cumulative IPC: 1.29503 (Simulation time: 0 hr 13 min 38 sec) 
Heartbeat CPU 0 instructions: 200000000 cycles: 156772982 heartbeat IPC: 0.945131 cumulative IPC: 1.27138 (Simulation time: 0 hr 14 min 24 sec) 
Heartbeat CPU 0 instructions: 210000000 cycles: 166929331 heartbeat IPC: 0.984606 cumulative IPC: 1.25391 (Simulation time: 0 hr 15 min 7 sec) 
Heartbeat CPU 0 instructions: 220000001 cycles: 175756312 heartbeat IPC: 1.13289 cumulative IPC: 1.24782 (Simulation time: 0 hr 15 min 48 sec) 
Heartbeat CPU 0 instructions: 230000001 cycles: 183650898 heartbeat IPC: 1.26669 cumulative IPC: 1.24863 (Simulation time: 0 hr 16 min 29 sec) 
Heartbeat CPU 0 instructions: 240000002 cycles: 191412802 heartbeat IPC: 1.28834 cumulative IPC: 1.25024 (Simulation time: 0 hr 17 min 9 sec) 
Heartbeat CPU 0 instructions: 250000000 cycles: 198507025 heartbeat IPC: 1.4096 cumulative IPC: 1.25595 (Simulation time: 0 hr 17 min 46 sec) 
Heartbeat CPU 0 instructions: 260000000 cycles: 204461559 heartbeat IPC: 1.67939 cumulative IPC: 1.26829 (Simulation time: 0 hr 18 min 23 sec) 
Heartbeat CPU 0 instructions: 270000000 cycles: 210026111 heartbeat IPC: 1.79709 cumulative IPC: 1.28232 (Simulation time: 0 hr 18 min 58 sec) 
Heartbeat CPU 0 instructions: 280000000 cycles: 219822703 heartbeat IPC: 1.02076 cumulative IPC: 1.27065 (Simulation time: 0 hr 19 min 41 sec) 
Heartbeat CPU 0 instructions: 290000001 cycles: 228509997 heartbeat IPC: 1.15111 cumulative IPC: 1.2661 (Simulation time: 0 hr 20 min 22 sec) 
Heartbeat CPU 0 instructions: 300000002 cycles: 235116185 heartbeat IPC: 1.51373 cumulative IPC: 1.27307 (Simulation time: 0 hr 21 min 1 sec) 
Heartbeat CPU 0 instructions: 310000001 cycles: 241791594 heartbeat IPC: 1.49804 cumulative IPC: 1.27928 (Simulation time: 0 hr 21 min 38 sec) 
Heartbeat CPU 0 instructions: 320000004 cycles: 249829449 heartbeat IPC: 1.24411 cumulative IPC: 1.27815 (Simulation time: 0 hr 22 min 17 sec) 
Heartbeat CPU 0 instructions: 330000004 cycles: 256062706 heartbeat IPC: 1.6043 cumulative IPC: 1.2861 (Simulation time: 0 hr 22 min 53 sec) 
Heartbeat CPU 0 instructions: 340000001 cycles: 264122456 heartbeat IPC: 1.24073 cumulative IPC: 1.28471 (Simulation time: 0 hr 23 min 32 sec) 
Heartbeat CPU 0 instructions: 350000002 cycles: 272768276 heartbeat IPC: 1.15663 cumulative IPC: 1.28065 (Simulation time: 0 hr 24 min 11 sec) 
Heartbeat CPU 0 instructions: 360000002 cycles: 281624009 heartbeat IPC: 1.12921 cumulative IPC: 1.27588 (Simulation time: 0 hr 24 min 53 sec) 
Heartbeat CPU 0 instructions: 370000004 cycles: 289436119 heartbeat IPC: 1.28006 cumulative IPC: 1.276 (Simulation time: 0 hr 25 min 34 sec) 
Heartbeat CPU 0 instructions: 380000003 cycles: 296589143 heartbeat IPC: 1.39801 cumulative IPC: 1.27894 (Simulation time: 0 hr 26 min 10 sec) 
Heartbeat CPU 0 instructions: 390000000 cycles: 305720810 heartbeat IPC: 1.09509 cumulative IPC: 1.27345 (Simulation time: 0 hr 26 min 49 sec) 
Heartbeat CPU 0 instructions: 400000001 cycles: 314333438 heartbeat IPC: 1.16109 cumulative IPC: 1.27036 (Simulation time: 0 hr 27 min 29 sec) 
Heartbeat CPU 0 instructions: 410000004 cycles: 323418457 heartbeat IPC: 1.10071 cumulative IPC: 1.26559 (Simulation time: 0 hr 28 min 10 sec) 
Heartbeat CPU 0 instructions: 420000002 cycles: 332795179 heartbeat IPC: 1.06647 cumulative IPC: 1.25998 (Simulation time: 0 hr 28 min 53 sec) 
Heartbeat CPU 0 instructions: 430000000 cycles: 341031522 heartbeat IPC: 1.21413 cumulative IPC: 1.25887 (Simulation time: 0 hr 29 min 33 sec) 
Heartbeat CPU 0 instructions: 440000004 cycles: 349202357 heartbeat IPC: 1.22387 cumulative IPC: 1.25805 (Simulation time: 0 hr 30 min 12 sec) 
Heartbeat CPU 0 instructions: 450000003 cycles: 357265929 heartbeat IPC: 1.24015 cumulative IPC: 1.25765 (Simulation time: 0 hr 30 min 51 sec) 
Heartbeat CPU 0 instructions: 460000000 cycles: 365075377 heartbeat IPC: 1.2805 cumulative IPC: 1.25814 (Simulation time: 0 hr 31 min 30 sec) 
Heartbeat CPU 0 instructions: 470000000 cycles: 373297800 heartbeat IPC: 1.21619 cumulative IPC: 1.25721 (Simulation time: 0 hr 32 min 10 sec) 
Heartbeat CPU 0 instructions: 480000003 cycles: 380374904 heartbeat IPC: 1.41301 cumulative IPC: 1.26011 (Simulation time: 0 hr 32 min 51 sec) 
Heartbeat CPU 0 instructions: 490000003 cycles: 387182809 heartbeat IPC: 1.46888 cumulative IPC: 1.26379 (Simulation time: 0 hr 33 min 29 sec) 
Heartbeat CPU 0 instructions: 500000002 cycles: 394776888 heartbeat IPC: 1.31682 cumulative IPC: 1.26481 (Simulation time: 0 hr 34 min 5 sec) 
Heartbeat CPU 0 instructions: 510000000 cycles: 415595525 heartbeat IPC: 0.480339 cumulative IPC: 1.22549 (Simulation time: 0 hr 35 min 44 sec) 
Heartbeat CPU 0 instructions: 520000002 cycles: 424494922 heartbeat IPC: 1.12367 cumulative IPC: 1.22335 (Simulation time: 0 hr 36 min 25 sec) 
Heartbeat CPU 0 instructions: 530000000 cycles: 432167813 heartbeat IPC: 1.30329 cumulative IPC: 1.22477 (Simulation time: 0 hr 37 min 4 sec) 
Heartbeat CPU 0 instructions: 540000002 cycles: 439468887 heartbeat IPC: 1.36966 cumulative IPC: 1.22718 (Simulation time: 0 hr 37 min 42 sec) 
Heartbeat CPU 0 instructions: 550000001 cycles: 449901281 heartbeat IPC: 0.958553 cumulative IPC: 1.22095 (Simulation time: 0 hr 38 min 25 sec) 
Heartbeat CPU 0 instructions: 560000003 cycles: 457588054 heartbeat IPC: 1.30094 cumulative IPC: 1.22229 (Simulation time: 0 hr 39 min 4 sec) 
Heartbeat CPU 0 instructions: 570000004 cycles: 465214056 heartbeat IPC: 1.3113 cumulative IPC: 1.22375 (Simulation time: 0 hr 39 min 42 sec) 
Heartbeat CPU 0 instructions: 580000004 cycles: 472768227 heartbeat IPC: 1.32377 cumulative IPC: 1.22535 (Simulation time: 0 hr 40 min 21 sec) 
Heartbeat CPU 0 instructions: 590000000 cycles: 480470995 heartbeat IPC: 1.29823 cumulative IPC: 1.22652 (Simulation time: 0 hr 40 min 58 sec) 
Heartbeat CPU 0 instructions: 600000000 cycles: 488594400 heartbeat IPC: 1.23101 cumulative IPC: 1.22659 (Simulation time: 0 hr 41 min 36 sec) 
Heartbeat CPU 0 instructions: 610000004 cycles: 496698835 heartbeat IPC: 1.23389 cumulative IPC: 1.22671 (Simulation time: 0 hr 42 min 17 sec) 
Heartbeat CPU 0 instructions: 620000001 cycles: 504160427 heartbeat IPC: 1.3402 cumulative IPC: 1.22839 (Simulation time: 0 hr 42 min 55 sec) 
Heartbeat CPU 0 instructions: 630000001 cycles: 512113783 heartbeat IPC: 1.25733 cumulative IPC: 1.22884 (Simulation time: 0 hr 43 min 32 sec) 
Heartbeat CPU 0 instructions: 640000003 cycles: 520013152 heartbeat IPC: 1.26592 cumulative IPC: 1.22941 (Simulation time: 0 hr 44 min 9 sec) 
Heartbeat CPU 0 instructions: 650000001 cycles: 526510753 heartbeat IPC: 1.53903 cumulative IPC: 1.23323 (Simulation time: 0 hr 44 min 43 sec) 
Heartbeat CPU 0 instructions: 660000003 cycles: 534390014 heartbeat IPC: 1.26915 cumulative IPC: 1.23376 (Simulation time: 0 hr 45 min 18 sec) 
Heartbeat CPU 0 instructions: 670000004 cycles: 542478784 heartbeat IPC: 1.23628 cumulative IPC: 1.2338 (Simulation time: 0 hr 45 min 53 sec) 
Heartbeat CPU 0 instructions: 680000002 cycles: 549811858 heartbeat IPC: 1.36368 cumulative IPC: 1.23553 (Simulation time: 0 hr 46 min 29 sec) 
Heartbeat CPU 0 instructions: 690000004 cycles: 558523932 heartbeat IPC: 1.14783 cumulative IPC: 1.23416 (Simulation time: 0 hr 47 min 6 sec) 
Heartbeat CPU 0 instructions: 700000000 cycles: 566168246 heartbeat IPC: 1.30816 cumulative IPC: 1.23516 (Simulation time: 0 hr 47 min 44 sec) 
Heartbeat CPU 0 instructions: 710000000 cycles: 574125461 heartbeat IPC: 1.25672 cumulative IPC: 1.23546 (Simulation time: 0 hr 48 min 20 sec) 
Heartbeat CPU 0 instructions: 720000002 cycles: 582048527 heartbeat IPC: 1.26214 cumulative IPC: 1.23582 (Simulation time: 0 hr 48 min 58 sec) 
Heartbeat CPU 0 instructions: 730000004 cycles: 589422616 heartbeat IPC: 1.3561 cumulative IPC: 1.23733 (Simulation time: 0 hr 49 min 31 sec) 
Heartbeat CPU 0 instructions: 740000002 cycles: 597240790 heartbeat IPC: 1.27907 cumulative IPC: 1.23788 (Simulation time: 0 hr 50 min 6 sec) 
Heartbeat CPU 0 instructions: 750000003 cycles: 603335917 heartbeat IPC: 1.64066 cumulative IPC: 1.24195 (Simulation time: 0 hr 50 min 38 sec) 
Heartbeat CPU 0 instructions: 760000000 cycles: 608779985 heartbeat IPC: 1.83686 cumulative IPC: 1.24727 (Simulation time: 0 hr 51 min 9 sec) 
Heartbeat CPU 0 instructions: 770000003 cycles: 614305724 heartbeat IPC: 1.80971 cumulative IPC: 1.25233 (Simulation time: 0 hr 51 min 40 sec) 
Heartbeat CPU 0 instructions: 780000004 cycles: 619647710 heartbeat IPC: 1.87196 cumulative IPC: 1.25767 (Simulation time: 0 hr 52 min 11 sec) 
Heartbeat CPU 0 instructions: 790000000 cycles: 625183820 heartbeat IPC: 1.80632 cumulative IPC: 1.26253 (Simulation time: 0 hr 52 min 41 sec) 
Heartbeat CPU 0 instructions: 800000002 cycles: 630697592 heartbeat IPC: 1.81364 cumulative IPC: 1.26735 (Simulation time: 0 hr 53 min 12 sec) 
Heartbeat CPU 0 instructions: 810000002 cycles: 636247553 heartbeat IPC: 1.80181 cumulative IPC: 1.27202 (Simulation time: 0 hr 53 min 44 sec) 
Heartbeat CPU 0 instructions: 820000000 cycles: 641688331 heartbeat IPC: 1.83797 cumulative IPC: 1.27682 (Simulation time: 0 hr 54 min 16 sec) 
Heartbeat CPU 0 instructions: 830000001 cycles: 647402905 heartbeat IPC: 1.74991 cumulative IPC: 1.281 (Simulation time: 0 hr 54 min 47 sec) 
Heartbeat CPU 0 instructions: 840000002 cycles: 652699750 heartbeat IPC: 1.88792 cumulative IPC: 1.28592 (Simulation time: 0 hr 55 min 17 sec) 
Heartbeat CPU 0 instructions: 850000003 cycles: 658436110 heartbeat IPC: 1.74327 cumulative IPC: 1.28991 (Simulation time: 0 hr 55 min 48 sec) 
Heartbeat CPU 0 instructions: 860000004 cycles: 663966656 heartbeat IPC: 1.80814 cumulative IPC: 1.29423 (Simulation time: 0 hr 56 min 19 sec) 
Heartbeat CPU 0 instructions: 870000000 cycles: 669629911 heartbeat IPC: 1.76577 cumulative IPC: 1.29822 (Simulation time: 0 hr 56 min 49 sec) 
Heartbeat CPU 0 instructions: 880000000 cycles: 675050391 heartbeat IPC: 1.84486 cumulative IPC: 1.30261 (Simulation time: 0 hr 57 min 21 sec) 
Heartbeat CPU 0 instructions: 890000004 cycles: 680481464 heartbeat IPC: 1.84126 cumulative IPC: 1.30691 (Simulation time: 0 hr 57 min 54 sec) 
Heartbeat CPU 0 instructions: 900000000 cycles: 686000271 heartbeat IPC: 1.81199 cumulative IPC: 1.31097 (Simulation time: 0 hr 58 min 25 sec) 
Heartbeat CPU 0 instructions: 910000004 cycles: 691458119 heartbeat IPC: 1.83222 cumulative IPC: 1.31509 (Simulation time: 0 hr 58 min 56 sec) 
Heartbeat CPU 0 instructions: 920000001 cycles: 696994883 heartbeat IPC: 1.80611 cumulative IPC: 1.31899 (Simulation time: 0 hr 59 min 27 sec) 
Heartbeat CPU 0 instructions: 930000001 cycles: 704327438 heartbeat IPC: 1.36378 cumulative IPC: 1.31946 (Simulation time: 1 hr 0 min 0 sec) 
Heartbeat CPU 0 instructions: 940000001 cycles: 712818970 heartbeat IPC: 1.17764 cumulative IPC: 1.31777 (Simulation time: 1 hr 0 min 36 sec) 
Heartbeat CPU 0 instructions: 950000000 cycles: 722341946 heartbeat IPC: 1.05009 cumulative IPC: 1.31424 (Simulation time: 1 hr 1 min 13 sec) 
Heartbeat CPU 0 instructions: 960000001 cycles: 728493951 heartbeat IPC: 1.62549 cumulative IPC: 1.31687 (Simulation time: 1 hr 1 min 44 sec) 
Heartbeat CPU 0 instructions: 970000002 cycles: 735766288 heartbeat IPC: 1.37507 cumulative IPC: 1.31744 (Simulation time: 1 hr 2 min 15 sec) 
Heartbeat CPU 0 instructions: 980000001 cycles: 746052109 heartbeat IPC: 0.972212 cumulative IPC: 1.31268 (Simulation time: 1 hr 2 min 52 sec) 
Heartbeat CPU 0 instructions: 990000000 cycles: 756731340 heartbeat IPC: 0.936397 cumulative IPC: 1.30737 (Simulation time: 1 hr 3 min 28 sec) 
Heartbeat CPU 0 instructions: 1000000000 cycles: 765330346 heartbeat IPC: 1.16293 cumulative IPC: 1.30575 (Simulation time: 1 hr 4 min 3 sec) 
Finished CPU 0 instructions: 1000000000 cycles: 765806844 cumulative IPC: 1.30581 (Simulation time: 1 hr 4 min 6 sec) 

ChampSim completed all CPUs

Region of Interest Statistics

CPU 0 cumulative IPC: 1.30581 instructions: 1000000000 cycles: 765806844
cpu0_DTLB TOTAL     ACCESS:  177264839  HIT:  172376926  MISS:    4887913
cpu0_DTLB LOAD      ACCESS:  138164787  HIT:  135886112  MISS:    2278675
cpu0_DTLB RFO       ACCESS:   39100052  HIT:   36490814  MISS:    2609238
cpu0_DTLB PREFETCH  ACCESS:          0  HIT:          0  MISS:          0
cpu0_DTLB WRITEBACK ACCESS:          0  HIT:          0  MISS:          0
cpu0_DTLB TRANSLATION ACCESS:          0  HIT:          0  MISS:          0
cpu0_DTLB PREFETCH  REQUESTED:          0  ISSUED:          0  USEFUL:          0  USELESS:          0
cpu0_DTLB AVERAGE MISS LATENCY: 10.6411 cycles
cpu0_ITLB TOTAL     ACCESS:   82682085  HIT:   82682073  MISS:         12
cpu0_ITLB LOAD      ACCESS:   82682085  HIT:   82682073  MISS:         12
cpu0_ITLB RFO       ACCESS:          0  HIT:          0  MISS:          0
cpu0_ITLB PREFETCH  ACCESS:          0  HIT:          0  MISS:          0
cpu0_ITLB WRITEBACK ACCESS:          0  HIT:          0  MISS:          0
cpu0_ITLB TRANSLATION ACCESS:          0  HIT:          0  MISS:          0
cpu0_ITLB PREFETCH  REQUESTED:          0  ISSUED:          0  USEFUL:          0  USELESS:          0
cpu0_ITLB AVERAGE MISS LATENCY: 188.5 cycles
cpu0_L1I TOTAL     ACCESS:   19127773  HIT:   19126942  MISS:        831
cpu0_L1I LOAD      ACCESS:   19127773  HIT:   19126942  MISS:        831
cpu0_L1I RFO       ACCESS:          0  HIT:          0  MISS:          0
cpu0_L1I PREFETCH  ACCESS:          0  HIT:          0  MISS:          0
cpu0_L1I WRITEBACK ACCESS:          0  HIT:          0  MISS:          0
cpu0_L1I TRANSLATION ACCESS:          0  HIT:          0  MISS:          0
cpu0_L1I PREFETCH  REQUESTED:          0  ISSUED:          0  USEFUL:          0  USELESS:          0
cpu0_L1I AVERAGE MISS LATENCY: 129.757 cycles
cpu0_STLB TOTAL     ACCESS:    4887925  HIT:    4458513  MISS:     429412
cpu0_STLB LOAD      ACCESS:    2278687  HIT:    1932509  MISS:     346178
cpu0_STLB RFO       ACCESS:    2609238  HIT:    2526004  MISS:      83234
cpu0_STLB PREFETCH  ACCESS:          0  HIT:          0  MISS:          0
cpu0_STLB WRITEBACK ACCESS:          0  HIT:          0  MISS:          0
cpu0_STLB TRANSLATION ACCESS:          0  HIT:          0  MISS:          0
cpu0_STLB PREFETCH  REQUESTED:          0  ISSUED:          0  USEFUL:          0  USELESS:          0
cpu0_STLB AVERAGE MISS LATENCY: 18.5697 cycles
cpu0_L1D TOTAL     ACCESS:  333313063  HIT:  321889108  MISS:   11423955
cpu0_L1D LOAD      ACCESS:  135832101  HIT:  131340686  MISS:    4491415
cpu0_L1D RFO       ACCESS:   63717860  HIT:   61721929  MISS:    1995931
cpu0_L1D PREFETCH  ACCESS:  133334998  HIT:  128444324  MISS:    4890674
cpu0_L1D WRITEBACK ACCESS:          0  HIT:          0  MISS:          0
cpu0_L1D TRANSLATION ACCESS:     428104  HIT:     382169  MISS:      45935
cpu0_L1D PREFETCH  REQUESTED:  136013270  ISSUED:  134385444  USEFUL:    2606319  USELESS:    2347107
cpu0_L1D AVERAGE MISS LATENCY: 81.6299 cycles
cpu0_L2C TOTAL     ACCESS:   17525421  HIT:   13722591  MISS:    3802830
cpu0_L2C LOAD      ACCESS:    4435762  HIT:    2923044  MISS:    1512718
cpu0_L2C RFO       ACCESS:    1987806  HIT:    1459511  MISS:     528295
cpu0_L2C PREFETCH  ACCESS:    5534815  HIT:    3780499  MISS:    1754316
cpu0_L2C WRITEBACK ACCESS:    5521103  HIT:    5514899  MISS:       6204
cpu0_L2C TRANSLATION ACCESS:      45935  HIT:      44638  MISS:       1297
cpu0_L2C PREFETCH  REQUESTED:     770879  ISSUED:     597055  USEFUL:      27045  USELESS:      29116
cpu0_L2C AVERAGE MISS LATENCY: 213.536 cycles
LLC TOTAL     ACCESS:    5482294  HIT:    3345218  MISS:    2137076
LLC LOAD      ACCESS:    1512685  HIT:     814637  MISS:     698048
LLC RFO       ACCESS:     528281  HIT:     163258  MISS:     365023
LLC PREFETCH  ACCESS:    1755747  HIT:     962338  MISS:     793409
LLC WRITEBACK ACCESS:    1684284  HIT:    1403911  MISS:     280373
LLC TRANSLATION ACCESS:       1297  HIT:       1074  MISS:        223
LLC PREFETCH  REQUESTED:          0  ISSUED:          0  USEFUL:          0  USELESS:          0
LLC AVERAGE MISS LATENCY: 332.694 cycles
OPTgen accesses: 32225
OPTgen hits: 26854
OPTgen hit rate: 83.3328



DRAM Statistics
 CHANNEL 0
 RQ ROW_BUFFER_HIT:      91584  ROW_BUFFER_MISS:    1764729
 DBUS AVG_CONGESTED_CYCLE:    3.81149
 WQ ROW_BUFFER_HIT:     133988  ROW_BUFFER_MISS:     848925  FULL:       2465


CPU 0 Branch Prediction Accuracy: 91.8231% MPKI: 12.3118 Average ROB Occupancy at Mispredict: 41.753
Branch type MPKI
BRANCH_DIRECT_JUMP: 2.7e-05
BRANCH_INDIRECT: 0.754334
BRANCH_CONDITIONAL: 11.5553
BRANCH_DIRECT_CALL: 1.6e-05
BRANCH_INDIRECT_CALL: 0.00218
BRANCH_RETURN: 2.6e-05

