
*** ChampSim Multicore Out-of-Order Simulator ***

Warmup Instructions: 1000000
Simulation Instructions: 1000000000
Number of CPUs: 1
Off-chip DRAM Size: 4 GiB Channels: 1 Width: 64-bit Data Rate: 3200 MT/s

VirtualMemory physical capacity: 8588881920 num_ppages: 2096895
VirtualMemory page size: 4096 log2_page_size: 12

CPU 0 runs tracer/pin/traces/spec2k17/605.mcf_s-665B.champsimtrace.xz
Basic BTB sets: 1024 ways: 8 indirect buffer size: 4096 RAS size: 64
cpu0_L1D next line prefetcher
cpu0_L2C IP-based stride prefetcher
Initialize Hawkeye state
WARNING: The extended signature CACHE::prefetch_line(ip, base_addr, pf_addr, fill_this_level, prefetch_metadata) is deprecated.
WARNING: Use CACHE::prefetch_line(pf_addr, fill_this_level, prefetch_metadata) instead.

Warmup complete CPU 0 instructions: 1000004 cycles: 304142 (Simulation time: 0 hr 0 min 4 sec) 

Heartbeat CPU 0 instructions: 10000004 cycles: 31169938 heartbeat IPC: 0.320822 cumulative IPC: 0.291585 (Simulation time: 0 hr 1 min 52 sec) 
Heartbeat CPU 0 instructions: 20000000 cycles: 65961114 heartbeat IPC: 0.287429 cumulative IPC: 0.289383 (Simulation time: 0 hr 3 min 53 sec) 
Heartbeat CPU 0 instructions: 30000000 cycles: 100202615 heartbeat IPC: 0.292043 cumulative IPC: 0.290295 (Simulation time: 0 hr 5 min 52 sec) 
Heartbeat CPU 0 instructions: 40000002 cycles: 134592890 heartbeat IPC: 0.29078 cumulative IPC: 0.290419 (Simulation time: 0 hr 7 min 51 sec) 
Heartbeat CPU 0 instructions: 50000004 cycles: 168247661 heartbeat IPC: 0.297135 cumulative IPC: 0.291765 (Simulation time: 0 hr 9 min 48 sec) 
Heartbeat CPU 0 instructions: 60000001 cycles: 203023225 heartbeat IPC: 0.287558 cumulative IPC: 0.291043 (Simulation time: 0 hr 11 min 48 sec) 
Heartbeat CPU 0 instructions: 70000000 cycles: 236557807 heartbeat IPC: 0.2982 cumulative IPC: 0.292059 (Simulation time: 0 hr 13 min 45 sec) 
Heartbeat CPU 0 instructions: 80000001 cycles: 270156181 heartbeat IPC: 0.297633 cumulative IPC: 0.292753 (Simulation time: 0 hr 15 min 42 sec) 
Heartbeat CPU 0 instructions: 90000000 cycles: 305426185 heartbeat IPC: 0.283527 cumulative IPC: 0.291687 (Simulation time: 0 hr 17 min 41 sec) 
Heartbeat CPU 0 instructions: 100000001 cycles: 337018554 heartbeat IPC: 0.316532 cumulative IPC: 0.294018 (Simulation time: 0 hr 19 min 25 sec) 
Heartbeat CPU 0 instructions: 110000000 cycles: 368575280 heartbeat IPC: 0.31689 cumulative IPC: 0.295978 (Simulation time: 0 hr 21 min 9 sec) 
Heartbeat CPU 0 instructions: 120000000 cycles: 399240081 heartbeat IPC: 0.326107 cumulative IPC: 0.298294 (Simulation time: 0 hr 22 min 53 sec) 
Heartbeat CPU 0 instructions: 130000000 cycles: 429867721 heartbeat IPC: 0.326502 cumulative IPC: 0.300305 (Simulation time: 0 hr 24 min 36 sec) 
Heartbeat CPU 0 instructions: 140000003 cycles: 461608096 heartbeat IPC: 0.315056 cumulative IPC: 0.30132 (Simulation time: 0 hr 26 min 22 sec) 
Heartbeat CPU 0 instructions: 150000000 cycles: 492918927 heartbeat IPC: 0.319378 cumulative IPC: 0.302468 (Simulation time: 0 hr 28 min 5 sec) 
Heartbeat CPU 0 instructions: 160000000 cycles: 523657406 heartbeat IPC: 0.325325 cumulative IPC: 0.30381 (Simulation time: 0 hr 29 min 47 sec) 
Heartbeat CPU 0 instructions: 170000001 cycles: 554840819 heartbeat IPC: 0.320683 cumulative IPC: 0.304759 (Simulation time: 0 hr 31 min 30 sec) 
Heartbeat CPU 0 instructions: 180000002 cycles: 585448719 heartbeat IPC: 0.326713 cumulative IPC: 0.305907 (Simulation time: 0 hr 33 min 13 sec) 
Heartbeat CPU 0 instructions: 190000003 cycles: 616888260 heartbeat IPC: 0.318071 cumulative IPC: 0.306528 (Simulation time: 0 hr 34 min 58 sec) 
Heartbeat CPU 0 instructions: 200000001 cycles: 648298788 heartbeat IPC: 0.318365 cumulative IPC: 0.307101 (Simulation time: 0 hr 36 min 42 sec) 
Heartbeat CPU 0 instructions: 210000001 cycles: 679840054 heartbeat IPC: 0.317045 cumulative IPC: 0.307563 (Simulation time: 0 hr 38 min 28 sec) 
Heartbeat CPU 0 instructions: 220000000 cycles: 710063041 heartbeat IPC: 0.330874 cumulative IPC: 0.308555 (Simulation time: 0 hr 40 min 9 sec) 
Heartbeat CPU 0 instructions: 230000000 cycles: 742814730 heartbeat IPC: 0.305328 cumulative IPC: 0.308413 (Simulation time: 0 hr 41 min 57 sec) 
Heartbeat CPU 0 instructions: 240000000 cycles: 772424780 heartbeat IPC: 0.337723 cumulative IPC: 0.309537 (Simulation time: 0 hr 43 min 36 sec) 
Heartbeat CPU 0 instructions: 250000001 cycles: 802912091 heartbeat IPC: 0.328005 cumulative IPC: 0.310239 (Simulation time: 0 hr 45 min 15 sec) 
Heartbeat CPU 0 instructions: 260000004 cycles: 833100825 heartbeat IPC: 0.33125 cumulative IPC: 0.311 (Simulation time: 0 hr 46 min 49 sec) 
Heartbeat CPU 0 instructions: 270000001 cycles: 863359064 heartbeat IPC: 0.330488 cumulative IPC: 0.311684 (Simulation time: 0 hr 48 min 25 sec) 
Heartbeat CPU 0 instructions: 280000001 cycles: 894027516 heartbeat IPC: 0.326068 cumulative IPC: 0.312177 (Simulation time: 0 hr 50 min 5 sec) 
Heartbeat CPU 0 instructions: 290000000 cycles: 923792337 heartbeat IPC: 0.335967 cumulative IPC: 0.312944 (Simulation time: 0 hr 51 min 43 sec) 
Heartbeat CPU 0 instructions: 300000000 cycles: 954505485 heartbeat IPC: 0.325593 cumulative IPC: 0.313351 (Simulation time: 0 hr 53 min 26 sec) 
Heartbeat CPU 0 instructions: 310000003 cycles: 981607068 heartbeat IPC: 0.368982 cumulative IPC: 0.314887 (Simulation time: 0 hr 55 min 0 sec) 
Heartbeat CPU 0 instructions: 320000000 cycles: 1010692376 heartbeat IPC: 0.343816 cumulative IPC: 0.31572 (Simulation time: 0 hr 56 min 36 sec) 
Heartbeat CPU 0 instructions: 330000002 cycles: 1039443294 heartbeat IPC: 0.347815 cumulative IPC: 0.316608 (Simulation time: 0 hr 58 min 12 sec) 
Heartbeat CPU 0 instructions: 340000000 cycles: 1067588628 heartbeat IPC: 0.355299 cumulative IPC: 0.317629 (Simulation time: 0 hr 59 min 47 sec) 
Heartbeat CPU 0 instructions: 350000003 cycles: 1096225977 heartbeat IPC: 0.349194 cumulative IPC: 0.318453 (Simulation time: 1 hr 1 min 21 sec) 
Heartbeat CPU 0 instructions: 360000003 cycles: 1124189480 heartbeat IPC: 0.357609 cumulative IPC: 0.319428 (Simulation time: 1 hr 2 min 55 sec) 
Heartbeat CPU 0 instructions: 370000002 cycles: 1152393228 heartbeat IPC: 0.354563 cumulative IPC: 0.320288 (Simulation time: 1 hr 4 min 27 sec) 
Heartbeat CPU 0 instructions: 380000001 cycles: 1180612396 heartbeat IPC: 0.354369 cumulative IPC: 0.321103 (Simulation time: 1 hr 5 min 54 sec) 
Heartbeat CPU 0 instructions: 390000000 cycles: 1208936970 heartbeat IPC: 0.35305 cumulative IPC: 0.321851 (Simulation time: 1 hr 7 min 21 sec) 
Heartbeat CPU 0 instructions: 400000002 cycles: 1237373564 heartbeat IPC: 0.35166 cumulative IPC: 0.322536 (Simulation time: 1 hr 8 min 50 sec) 
Heartbeat CPU 0 instructions: 410000002 cycles: 1266180646 heartbeat IPC: 0.347137 cumulative IPC: 0.323096 (Simulation time: 1 hr 10 min 18 sec) 
Heartbeat CPU 0 instructions: 420000001 cycles: 1294341526 heartbeat IPC: 0.355103 cumulative IPC: 0.323793 (Simulation time: 1 hr 11 min 43 sec) 
Heartbeat CPU 0 instructions: 430000000 cycles: 1322597506 heartbeat IPC: 0.353907 cumulative IPC: 0.324436 (Simulation time: 1 hr 13 min 10 sec) 
Heartbeat CPU 0 instructions: 440000003 cycles: 1350729784 heartbeat IPC: 0.355464 cumulative IPC: 0.325083 (Simulation time: 1 hr 14 min 33 sec) 
Heartbeat CPU 0 instructions: 450000004 cycles: 1379944721 heartbeat IPC: 0.342291 cumulative IPC: 0.325447 (Simulation time: 1 hr 15 min 57 sec) 
Heartbeat CPU 0 instructions: 460000000 cycles: 1409604512 heartbeat IPC: 0.337157 cumulative IPC: 0.325694 (Simulation time: 1 hr 17 min 28 sec) 
Heartbeat CPU 0 instructions: 470000000 cycles: 1440245268 heartbeat IPC: 0.326363 cumulative IPC: 0.325708 (Simulation time: 1 hr 18 min 56 sec) 
Heartbeat CPU 0 instructions: 480000000 cycles: 1469789175 heartbeat IPC: 0.338479 cumulative IPC: 0.325965 (Simulation time: 1 hr 20 min 24 sec) 
Heartbeat CPU 0 instructions: 490000003 cycles: 1499560203 heartbeat IPC: 0.335897 cumulative IPC: 0.326162 (Simulation time: 1 hr 21 min 50 sec) 
Heartbeat CPU 0 instructions: 500000000 cycles: 1530346125 heartbeat IPC: 0.324824 cumulative IPC: 0.326135 (Simulation time: 1 hr 23 min 22 sec) 
Heartbeat CPU 0 instructions: 510000003 cycles: 1560234405 heartbeat IPC: 0.334579 cumulative IPC: 0.326297 (Simulation time: 1 hr 24 min 49 sec) 
Heartbeat CPU 0 instructions: 520000000 cycles: 1589978131 heartbeat IPC: 0.336205 cumulative IPC: 0.326482 (Simulation time: 1 hr 26 min 17 sec) 
Heartbeat CPU 0 instructions: 530000004 cycles: 1620539060 heartbeat IPC: 0.327215 cumulative IPC: 0.326496 (Simulation time: 1 hr 27 min 47 sec) 
Heartbeat CPU 0 instructions: 540000002 cycles: 1650428609 heartbeat IPC: 0.334565 cumulative IPC: 0.326642 (Simulation time: 1 hr 29 min 7 sec) 
Heartbeat CPU 0 instructions: 550000004 cycles: 1681255069 heartbeat IPC: 0.324397 cumulative IPC: 0.326601 (Simulation time: 1 hr 30 min 37 sec) 
Heartbeat CPU 0 instructions: 560000003 cycles: 1712344667 heartbeat IPC: 0.321651 cumulative IPC: 0.326511 (Simulation time: 1 hr 32 min 6 sec) 
Heartbeat CPU 0 instructions: 570000001 cycles: 1756254482 heartbeat IPC: 0.227739 cumulative IPC: 0.324041 (Simulation time: 1 hr 34 min 2 sec) 
Heartbeat CPU 0 instructions: 580000004 cycles: 1789023290 heartbeat IPC: 0.305168 cumulative IPC: 0.323695 (Simulation time: 1 hr 35 min 43 sec) 
Heartbeat CPU 0 instructions: 590000000 cycles: 1822973713 heartbeat IPC: 0.294547 cumulative IPC: 0.323152 (Simulation time: 1 hr 37 min 19 sec) 
Heartbeat CPU 0 instructions: 600000000 cycles: 1855730508 heartbeat IPC: 0.30528 cumulative IPC: 0.322837 (Simulation time: 1 hr 38 min 59 sec) 
Heartbeat CPU 0 instructions: 610000001 cycles: 1889161265 heartbeat IPC: 0.299126 cumulative IPC: 0.322417 (Simulation time: 1 hr 40 min 34 sec) 
Heartbeat CPU 0 instructions: 620000002 cycles: 1921528095 heartbeat IPC: 0.308958 cumulative IPC: 0.32219 (Simulation time: 1 hr 42 min 8 sec) 
Heartbeat CPU 0 instructions: 630000001 cycles: 1955176624 heartbeat IPC: 0.29719 cumulative IPC: 0.32176 (Simulation time: 1 hr 43 min 47 sec) 
Heartbeat CPU 0 instructions: 640000000 cycles: 1988422804 heartbeat IPC: 0.300786 cumulative IPC: 0.321409 (Simulation time: 1 hr 45 min 27 sec) 
Heartbeat CPU 0 instructions: 650000000 cycles: 2020896979 heartbeat IPC: 0.307937 cumulative IPC: 0.321193 (Simulation time: 1 hr 47 min 6 sec) 
Heartbeat CPU 0 instructions: 660000004 cycles: 2054265598 heartbeat IPC: 0.299683 cumulative IPC: 0.320843 (Simulation time: 1 hr 48 min 42 sec) 
Heartbeat CPU 0 instructions: 670000002 cycles: 2087124495 heartbeat IPC: 0.304332 cumulative IPC: 0.320583 (Simulation time: 1 hr 50 min 17 sec) 
Heartbeat CPU 0 instructions: 680000000 cycles: 2120421424 heartbeat IPC: 0.300328 cumulative IPC: 0.320265 (Simulation time: 1 hr 51 min 53 sec) 
Heartbeat CPU 0 instructions: 690000001 cycles: 2152770854 heartbeat IPC: 0.309124 cumulative IPC: 0.320098 (Simulation time: 1 hr 53 min 31 sec) 
Heartbeat CPU 0 instructions: 700000000 cycles: 2186064459 heartbeat IPC: 0.300358 cumulative IPC: 0.319797 (Simulation time: 1 hr 55 min 9 sec) 
Heartbeat CPU 0 instructions: 710000000 cycles: 2219132384 heartbeat IPC: 0.302408 cumulative IPC: 0.319538 (Simulation time: 1 hr 56 min 40 sec) 
Heartbeat CPU 0 instructions: 720000000 cycles: 2252497802 heartbeat IPC: 0.299712 cumulative IPC: 0.319244 (Simulation time: 1 hr 58 min 19 sec) 
Heartbeat CPU 0 instructions: 730000002 cycles: 2286214491 heartbeat IPC: 0.296589 cumulative IPC: 0.31891 (Simulation time: 1 hr 59 min 54 sec) 
Heartbeat CPU 0 instructions: 740000002 cycles: 2319815496 heartbeat IPC: 0.29761 cumulative IPC: 0.318602 (Simulation time: 2 hr 1 min 32 sec) 
Heartbeat CPU 0 instructions: 750000001 cycles: 2353317122 heartbeat IPC: 0.298493 cumulative IPC: 0.318315 (Simulation time: 2 hr 3 min 7 sec) 
Heartbeat CPU 0 instructions: 760000000 cycles: 2387288482 heartbeat IPC: 0.294366 cumulative IPC: 0.317974 (Simulation time: 2 hr 4 min 44 sec) 
Heartbeat CPU 0 instructions: 770000000 cycles: 2421588837 heartbeat IPC: 0.291542 cumulative IPC: 0.3176 (Simulation time: 2 hr 6 min 8 sec) 
Heartbeat CPU 0 instructions: 780000000 cycles: 2455462615 heartbeat IPC: 0.295214 cumulative IPC: 0.317291 (Simulation time: 2 hr 7 min 43 sec) 
Heartbeat CPU 0 instructions: 790000000 cycles: 2488778858 heartbeat IPC: 0.300154 cumulative IPC: 0.317062 (Simulation time: 2 hr 9 min 18 sec) 
Heartbeat CPU 0 instructions: 800000000 cycles: 2527065375 heartbeat IPC: 0.261189 cumulative IPC: 0.316215 (Simulation time: 2 hr 10 min 58 sec) 
Heartbeat CPU 0 instructions: 810000002 cycles: 2564389264 heartbeat IPC: 0.267925 cumulative IPC: 0.315512 (Simulation time: 2 hr 12 min 43 sec) 
Heartbeat CPU 0 instructions: 820000001 cycles: 2602097053 heartbeat IPC: 0.265197 cumulative IPC: 0.314783 (Simulation time: 2 hr 14 min 23 sec) 
Heartbeat CPU 0 instructions: 830000000 cycles: 2642019468 heartbeat IPC: 0.250486 cumulative IPC: 0.313811 (Simulation time: 2 hr 16 min 15 sec) 
Heartbeat CPU 0 instructions: 840000002 cycles: 2680803265 heartbeat IPC: 0.25784 cumulative IPC: 0.313001 (Simulation time: 2 hr 17 min 52 sec) 
Heartbeat CPU 0 instructions: 850000001 cycles: 2723469761 heartbeat IPC: 0.234376 cumulative IPC: 0.31177 (Simulation time: 2 hr 19 min 38 sec) 
Heartbeat CPU 0 instructions: 860000001 cycles: 2763394184 heartbeat IPC: 0.250473 cumulative IPC: 0.310884 (Simulation time: 2 hr 21 min 16 sec) 
Heartbeat CPU 0 instructions: 870000003 cycles: 2804305780 heartbeat IPC: 0.24443 cumulative IPC: 0.309914 (Simulation time: 2 hr 22 min 57 sec) 
Heartbeat CPU 0 instructions: 880000001 cycles: 2845353798 heartbeat IPC: 0.243617 cumulative IPC: 0.308958 (Simulation time: 2 hr 24 min 35 sec) 
Heartbeat CPU 0 instructions: 890000000 cycles: 2887101040 heartbeat IPC: 0.239537 cumulative IPC: 0.307954 (Simulation time: 2 hr 26 min 14 sec) 
Heartbeat CPU 0 instructions: 900000000 cycles: 2928285628 heartbeat IPC: 0.242809 cumulative IPC: 0.307037 (Simulation time: 2 hr 28 min 0 sec) 
Heartbeat CPU 0 instructions: 910000002 cycles: 2969430893 heartbeat IPC: 0.243041 cumulative IPC: 0.306151 (Simulation time: 2 hr 29 min 44 sec) 
Heartbeat CPU 0 instructions: 920000002 cycles: 3011759904 heartbeat IPC: 0.236245 cumulative IPC: 0.305168 (Simulation time: 2 hr 31 min 24 sec) 
Heartbeat CPU 0 instructions: 930000004 cycles: 3054218745 heartbeat IPC: 0.235522 cumulative IPC: 0.3042 (Simulation time: 2 hr 33 min 2 sec) 
Heartbeat CPU 0 instructions: 940000000 cycles: 3095937887 heartbeat IPC: 0.239698 cumulative IPC: 0.30333 (Simulation time: 2 hr 34 min 38 sec) 
Heartbeat CPU 0 instructions: 950000003 cycles: 3138063737 heartbeat IPC: 0.237384 cumulative IPC: 0.302445 (Simulation time: 2 hr 36 min 14 sec) 
Heartbeat CPU 0 instructions: 960000002 cycles: 3180049775 heartbeat IPC: 0.238174 cumulative IPC: 0.301596 (Simulation time: 2 hr 37 min 50 sec) 
Heartbeat CPU 0 instructions: 970000001 cycles: 3222582834 heartbeat IPC: 0.235111 cumulative IPC: 0.300719 (Simulation time: 2 hr 39 min 26 sec) 
Heartbeat CPU 0 instructions: 980000001 cycles: 3264456535 heartbeat IPC: 0.238813 cumulative IPC: 0.299925 (Simulation time: 2 hr 41 min 1 sec) 
Heartbeat CPU 0 instructions: 990000003 cycles: 3305893282 heartbeat IPC: 0.241332 cumulative IPC: 0.29919 (Simulation time: 2 hr 42 min 37 sec) 
Heartbeat CPU 0 instructions: 1000000002 cycles: 3346647139 heartbeat IPC: 0.245376 cumulative IPC: 0.298535 (Simulation time: 2 hr 44 min 10 sec) 
Finished CPU 0 instructions: 1000000002 cycles: 3350875394 cumulative IPC: 0.298429 (Simulation time: 2 hr 44 min 20 sec) 

ChampSim completed all CPUs

Region of Interest Statistics

CPU 0 cumulative IPC: 0.298429 instructions: 1000000002 cycles: 3350875394
cpu0_DTLB TOTAL     ACCESS:  268429141  HIT:  251032562  MISS:   17396579
cpu0_DTLB LOAD      ACCESS:  204651510  HIT:  189454047  MISS:   15197463
cpu0_DTLB RFO       ACCESS:   63777631  HIT:   61578515  MISS:    2199116
cpu0_DTLB PREFETCH  ACCESS:          0  HIT:          0  MISS:          0
cpu0_DTLB WRITEBACK ACCESS:          0  HIT:          0  MISS:          0
cpu0_DTLB TRANSLATION ACCESS:          0  HIT:          0  MISS:          0
cpu0_DTLB PREFETCH  REQUESTED:          0  ISSUED:          0  USEFUL:          0  USELESS:          0
cpu0_DTLB AVERAGE MISS LATENCY: 10.9817 cycles
cpu0_ITLB TOTAL     ACCESS:  151459467  HIT:  151459467  MISS:          0
cpu0_ITLB LOAD      ACCESS:  151459467  HIT:  151459467  MISS:          0
cpu0_ITLB RFO       ACCESS:          0  HIT:          0  MISS:          0
cpu0_ITLB PREFETCH  ACCESS:          0  HIT:          0  MISS:          0
cpu0_ITLB WRITEBACK ACCESS:          0  HIT:          0  MISS:          0
cpu0_ITLB TRANSLATION ACCESS:          0  HIT:          0  MISS:          0
cpu0_ITLB PREFETCH  REQUESTED:          0  ISSUED:          0  USEFUL:          0  USELESS:          0
cpu0_ITLB AVERAGE MISS LATENCY: -nan cycles
cpu0_L1I TOTAL     ACCESS:    2060633  HIT:    2060631  MISS:          2
cpu0_L1I LOAD      ACCESS:    2060633  HIT:    2060631  MISS:          2
cpu0_L1I RFO       ACCESS:          0  HIT:          0  MISS:          0
cpu0_L1I PREFETCH  ACCESS:          0  HIT:          0  MISS:          0
cpu0_L1I WRITEBACK ACCESS:          0  HIT:          0  MISS:          0
cpu0_L1I TRANSLATION ACCESS:          0  HIT:          0  MISS:          0
cpu0_L1I PREFETCH  REQUESTED:          0  ISSUED:          0  USEFUL:          0  USELESS:          0
cpu0_L1I AVERAGE MISS LATENCY: 340.5 cycles
cpu0_STLB TOTAL     ACCESS:   17396579  HIT:   17148112  MISS:     248467
cpu0_STLB LOAD      ACCESS:   15197463  HIT:   14952777  MISS:     244686
cpu0_STLB RFO       ACCESS:    2199116  HIT:    2195335  MISS:       3781
cpu0_STLB PREFETCH  ACCESS:          0  HIT:          0  MISS:          0
cpu0_STLB WRITEBACK ACCESS:          0  HIT:          0  MISS:          0
cpu0_STLB TRANSLATION ACCESS:          0  HIT:          0  MISS:          0
cpu0_STLB PREFETCH  REQUESTED:          0  ISSUED:          0  USEFUL:          0  USELESS:          0
cpu0_STLB AVERAGE MISS LATENCY: 138.425 cycles
cpu0_L1D TOTAL     ACCESS:  614422372  HIT:  542648087  MISS:   71774285
cpu0_L1D LOAD      ACCESS:  258892289  HIT:  221405356  MISS:   37486933
cpu0_L1D RFO       ACCESS:  107961692  HIT:  103809526  MISS:    4152166
cpu0_L1D PREFETCH  ACCESS:  247320720  HIT:  217246946  MISS:   30073774
cpu0_L1D WRITEBACK ACCESS:          0  HIT:          0  MISS:          0
cpu0_L1D TRANSLATION ACCESS:     247671  HIT:     186259  MISS:      61412
cpu0_L1D PREFETCH  REQUESTED:  260608076  ISSUED:  257302863  USEFUL:   12199669  USELESS:   20490037
cpu0_L1D AVERAGE MISS LATENCY: 142.847 cycles
cpu0_L2C TOTAL     ACCESS:   81924200  HIT:   33878119  MISS:   48046081
cpu0_L2C LOAD      ACCESS:   34897917  HIT:   12546017  MISS:   22351900
cpu0_L2C RFO       ACCESS:    4125013  HIT:     951067  MISS:    3173946
cpu0_L2C PREFETCH  ACCESS:   36353193  HIT:   13861066  MISS:   22492127
cpu0_L2C WRITEBACK ACCESS:    6486665  HIT:    6478936  MISS:       7729
cpu0_L2C TRANSLATION ACCESS:      61412  HIT:      41033  MISS:      20379
cpu0_L2C PREFETCH  REQUESTED:    4775143  ISSUED:    4085188  USEFUL:     419823  USELESS:     290087
cpu0_L2C AVERAGE MISS LATENCY: 224.108 cycles
LLC TOTAL     ACCESS:   52764346  HIT:   31383536  MISS:   21380810
LLC LOAD      ACCESS:   22351799  HIT:   14136865  MISS:    8214934
LLC RFO       ACCESS:    3173882  HIT:    2840538  MISS:     333344
LLC PREFETCH  ACCESS:   22679712  HIT:    9951710  MISS:   12728002
LLC WRITEBACK ACCESS:    4538574  HIT:    4439392  MISS:      99182
LLC TRANSLATION ACCESS:      20379  HIT:      15031  MISS:       5348
LLC PREFETCH  REQUESTED:          0  ISSUED:          0  USEFUL:          0  USELESS:          0
LLC AVERAGE MISS LATENCY: 448.071 cycles
OPTgen accesses: 397431
OPTgen hits: 342608
OPTgen hit rate: 86.2057



DRAM Statistics
 CHANNEL 0
 RQ ROW_BUFFER_HIT:    1470611  ROW_BUFFER_MISS:   19722141
 DBUS AVG_CONGESTED_CYCLE:    3.84991
 WQ ROW_BUFFER_HIT:      68263  ROW_BUFFER_MISS:     616546  FULL:          0


CPU 0 Branch Prediction Accuracy: 90.3357% MPKI: 24.2248 Average ROB Occupancy at Mispredict: 23.8021
Branch type MPKI
BRANCH_DIRECT_JUMP: 3e-06
BRANCH_INDIRECT: 0
BRANCH_CONDITIONAL: 24.2236
BRANCH_DIRECT_CALL: 0
BRANCH_INDIRECT_CALL: 0.001178
BRANCH_RETURN: 0

