
*** ChampSim Multicore Out-of-Order Simulator ***

Warmup Instructions: 1000000
Simulation Instructions: 1000000000
Number of CPUs: 1
Off-chip DRAM Size: 4 GiB Channels: 1 Width: 64-bit Data Rate: 3200 MT/s

VirtualMemory physical capacity: 8588881920 num_ppages: 2096895
VirtualMemory page size: 4096 log2_page_size: 12

CPU 0 runs tracer/pin/traces/spec2k6/481.wrf-196B.champsimtrace.xz
Basic BTB sets: 1024 ways: 8 indirect buffer size: 4096 RAS size: 64
cpu0_L1D next line prefetcher
cpu0_L2C IP-based stride prefetcher
Initialize Hawkeye state
WARNING: The extended signature CACHE::prefetch_line(ip, base_addr, pf_addr, fill_this_level, prefetch_metadata) is deprecated.
WARNING: Use CACHE::prefetch_line(pf_addr, fill_this_level, prefetch_metadata) instead.

Warmup complete CPU 0 instructions: 1000002 cycles: 314000 (Simulation time: 0 hr 0 min 4 sec) 

Heartbeat CPU 0 instructions: 10000002 cycles: 4766117 heartbeat IPC: 2.09814 cumulative IPC: 2.02151 (Simulation time: 0 hr 0 min 57 sec) 
Heartbeat CPU 0 instructions: 20000003 cycles: 10941991 heartbeat IPC: 1.6192 cumulative IPC: 1.78773 (Simulation time: 0 hr 2 min 1 sec) 
Heartbeat CPU 0 instructions: 30000000 cycles: 17756232 heartbeat IPC: 1.46751 cumulative IPC: 1.66263 (Simulation time: 0 hr 3 min 3 sec) 
Heartbeat CPU 0 instructions: 40000001 cycles: 24767234 heartbeat IPC: 1.42633 cumulative IPC: 1.59488 (Simulation time: 0 hr 4 min 6 sec) 
Heartbeat CPU 0 instructions: 50000000 cycles: 31950430 heartbeat IPC: 1.39214 cumulative IPC: 1.54885 (Simulation time: 0 hr 5 min 10 sec) 
Heartbeat CPU 0 instructions: 60000003 cycles: 38540135 heartbeat IPC: 1.51752 cumulative IPC: 1.54345 (Simulation time: 0 hr 6 min 12 sec) 
Heartbeat CPU 0 instructions: 70000001 cycles: 45081607 heartbeat IPC: 1.52871 cumulative IPC: 1.54129 (Simulation time: 0 hr 7 min 11 sec) 
Heartbeat CPU 0 instructions: 80000001 cycles: 50768434 heartbeat IPC: 1.75845 cumulative IPC: 1.56577 (Simulation time: 0 hr 8 min 7 sec) 
Heartbeat CPU 0 instructions: 90000000 cycles: 56128305 heartbeat IPC: 1.86572 cumulative IPC: 1.59457 (Simulation time: 0 hr 9 min 1 sec) 
Heartbeat CPU 0 instructions: 100000004 cycles: 62229387 heartbeat IPC: 1.63905 cumulative IPC: 1.59896 (Simulation time: 0 hr 10 min 0 sec) 
Heartbeat CPU 0 instructions: 110000000 cycles: 68886142 heartbeat IPC: 1.50223 cumulative IPC: 1.58957 (Simulation time: 0 hr 10 min 58 sec) 
Heartbeat CPU 0 instructions: 120000003 cycles: 75243527 heartbeat IPC: 1.57297 cumulative IPC: 1.58816 (Simulation time: 0 hr 11 min 58 sec) 
Heartbeat CPU 0 instructions: 130000003 cycles: 81474511 heartbeat IPC: 1.60488 cumulative IPC: 1.58944 (Simulation time: 0 hr 12 min 58 sec) 
Heartbeat CPU 0 instructions: 140000000 cycles: 87577779 heartbeat IPC: 1.63847 cumulative IPC: 1.59287 (Simulation time: 0 hr 13 min 59 sec) 
Heartbeat CPU 0 instructions: 150000004 cycles: 94441317 heartbeat IPC: 1.45698 cumulative IPC: 1.58296 (Simulation time: 0 hr 15 min 0 sec) 
Heartbeat CPU 0 instructions: 160000001 cycles: 100215970 heartbeat IPC: 1.73171 cumulative IPC: 1.59156 (Simulation time: 0 hr 15 min 59 sec) 
Heartbeat CPU 0 instructions: 170000000 cycles: 106862956 heartbeat IPC: 1.50444 cumulative IPC: 1.58613 (Simulation time: 0 hr 17 min 1 sec) 
Heartbeat CPU 0 instructions: 180000000 cycles: 112936217 heartbeat IPC: 1.64656 cumulative IPC: 1.58938 (Simulation time: 0 hr 17 min 58 sec) 
Heartbeat CPU 0 instructions: 190000001 cycles: 119276194 heartbeat IPC: 1.57729 cumulative IPC: 1.58874 (Simulation time: 0 hr 18 min 58 sec) 
Heartbeat CPU 0 instructions: 200000002 cycles: 125570271 heartbeat IPC: 1.5888 cumulative IPC: 1.58874 (Simulation time: 0 hr 19 min 57 sec) 
Heartbeat CPU 0 instructions: 210000004 cycles: 131752963 heartbeat IPC: 1.61742 cumulative IPC: 1.59009 (Simulation time: 0 hr 20 min 53 sec) 
Heartbeat CPU 0 instructions: 220000000 cycles: 138145925 heartbeat IPC: 1.56422 cumulative IPC: 1.58889 (Simulation time: 0 hr 21 min 52 sec) 
Heartbeat CPU 0 instructions: 230000004 cycles: 143951249 heartbeat IPC: 1.72256 cumulative IPC: 1.59429 (Simulation time: 0 hr 22 min 45 sec) 
Heartbeat CPU 0 instructions: 240000001 cycles: 150091878 heartbeat IPC: 1.6285 cumulative IPC: 1.5957 (Simulation time: 0 hr 23 min 41 sec) 
Heartbeat CPU 0 instructions: 250000003 cycles: 157093290 heartbeat IPC: 1.42828 cumulative IPC: 1.58822 (Simulation time: 0 hr 24 min 43 sec) 
Heartbeat CPU 0 instructions: 260000002 cycles: 163648553 heartbeat IPC: 1.52549 cumulative IPC: 1.5857 (Simulation time: 0 hr 25 min 43 sec) 
Heartbeat CPU 0 instructions: 270000002 cycles: 172954184 heartbeat IPC: 1.07462 cumulative IPC: 1.55815 (Simulation time: 0 hr 26 min 58 sec) 
Heartbeat CPU 0 instructions: 280000001 cycles: 184189083 heartbeat IPC: 0.890084 cumulative IPC: 1.51733 (Simulation time: 0 hr 28 min 28 sec) 
Heartbeat CPU 0 instructions: 290000004 cycles: 200121604 heartbeat IPC: 0.627647 cumulative IPC: 1.44639 (Simulation time: 0 hr 30 min 29 sec) 
Heartbeat CPU 0 instructions: 300000001 cycles: 207302113 heartbeat IPC: 1.39266 cumulative IPC: 1.44453 (Simulation time: 0 hr 31 min 50 sec) 
Heartbeat CPU 0 instructions: 310000003 cycles: 214518022 heartbeat IPC: 1.38583 cumulative IPC: 1.44255 (Simulation time: 0 hr 33 min 10 sec) 
Heartbeat CPU 0 instructions: 320000001 cycles: 220427460 heartbeat IPC: 1.69221 cumulative IPC: 1.44925 (Simulation time: 0 hr 34 min 23 sec) 
Heartbeat CPU 0 instructions: 330000003 cycles: 225914681 heartbeat IPC: 1.82242 cumulative IPC: 1.45833 (Simulation time: 0 hr 35 min 37 sec) 
Heartbeat CPU 0 instructions: 340000002 cycles: 231411616 heartbeat IPC: 1.8192 cumulative IPC: 1.46691 (Simulation time: 0 hr 36 min 50 sec) 
Heartbeat CPU 0 instructions: 350000004 cycles: 236789780 heartbeat IPC: 1.85937 cumulative IPC: 1.47584 (Simulation time: 0 hr 37 min 58 sec) 
Heartbeat CPU 0 instructions: 360000000 cycles: 244203444 heartbeat IPC: 1.34886 cumulative IPC: 1.47198 (Simulation time: 0 hr 39 min 13 sec) 
Heartbeat CPU 0 instructions: 370000001 cycles: 253344728 heartbeat IPC: 1.09394 cumulative IPC: 1.45832 (Simulation time: 0 hr 40 min 34 sec) 
Heartbeat CPU 0 instructions: 380000001 cycles: 262589839 heartbeat IPC: 1.08165 cumulative IPC: 1.44504 (Simulation time: 0 hr 41 min 58 sec) 
Heartbeat CPU 0 instructions: 390000001 cycles: 271951843 heartbeat IPC: 1.06815 cumulative IPC: 1.43205 (Simulation time: 0 hr 43 min 25 sec) 
Heartbeat CPU 0 instructions: 400000000 cycles: 280451735 heartbeat IPC: 1.17649 cumulative IPC: 1.4243 (Simulation time: 0 hr 44 min 53 sec) 
Heartbeat CPU 0 instructions: 410000004 cycles: 288636068 heartbeat IPC: 1.22185 cumulative IPC: 1.41855 (Simulation time: 0 hr 46 min 20 sec) 
Heartbeat CPU 0 instructions: 420000004 cycles: 296541090 heartbeat IPC: 1.26502 cumulative IPC: 1.41446 (Simulation time: 0 hr 47 min 45 sec) 
Heartbeat CPU 0 instructions: 430000001 cycles: 304025538 heartbeat IPC: 1.3361 cumulative IPC: 1.41252 (Simulation time: 0 hr 49 min 11 sec) 
Heartbeat CPU 0 instructions: 440000000 cycles: 313388344 heartbeat IPC: 1.06806 cumulative IPC: 1.40222 (Simulation time: 0 hr 50 min 42 sec) 
Heartbeat CPU 0 instructions: 450000002 cycles: 325934708 heartbeat IPC: 0.797044 cumulative IPC: 1.3789 (Simulation time: 0 hr 52 min 21 sec) 
Heartbeat CPU 0 instructions: 460000004 cycles: 332164828 heartbeat IPC: 1.60511 cumulative IPC: 1.38315 (Simulation time: 0 hr 53 min 43 sec) 
Heartbeat CPU 0 instructions: 470000000 cycles: 338331343 heartbeat IPC: 1.62166 cumulative IPC: 1.3875 (Simulation time: 0 hr 55 min 4 sec) 
Heartbeat CPU 0 instructions: 480000001 cycles: 344551487 heartbeat IPC: 1.60768 cumulative IPC: 1.39148 (Simulation time: 0 hr 56 min 24 sec) 
Heartbeat CPU 0 instructions: 490000003 cycles: 350883952 heartbeat IPC: 1.57916 cumulative IPC: 1.39487 (Simulation time: 0 hr 57 min 32 sec) 
Heartbeat CPU 0 instructions: 500000002 cycles: 357407947 heartbeat IPC: 1.5328 cumulative IPC: 1.39739 (Simulation time: 0 hr 58 min 43 sec) 
Heartbeat CPU 0 instructions: 510000004 cycles: 366180108 heartbeat IPC: 1.13997 cumulative IPC: 1.39122 (Simulation time: 1 hr 0 min 6 sec) 
Heartbeat CPU 0 instructions: 520000003 cycles: 375697278 heartbeat IPC: 1.05073 cumulative IPC: 1.38259 (Simulation time: 1 hr 1 min 29 sec) 
Heartbeat CPU 0 instructions: 530000002 cycles: 386468937 heartbeat IPC: 0.928362 cumulative IPC: 1.36992 (Simulation time: 1 hr 2 min 56 sec) 
Heartbeat CPU 0 instructions: 540000003 cycles: 394463821 heartbeat IPC: 1.2508 cumulative IPC: 1.3675 (Simulation time: 1 hr 4 min 22 sec) 
Heartbeat CPU 0 instructions: 550000000 cycles: 404128778 heartbeat IPC: 1.03467 cumulative IPC: 1.35953 (Simulation time: 1 hr 5 min 52 sec) 
Heartbeat CPU 0 instructions: 560000004 cycles: 415790130 heartbeat IPC: 0.857534 cumulative IPC: 1.34544 (Simulation time: 1 hr 7 min 27 sec) 
Heartbeat CPU 0 instructions: 570000000 cycles: 421652082 heartbeat IPC: 1.70592 cumulative IPC: 1.35046 (Simulation time: 1 hr 8 min 30 sec) 
Heartbeat CPU 0 instructions: 580000003 cycles: 427591021 heartbeat IPC: 1.6838 cumulative IPC: 1.35509 (Simulation time: 1 hr 9 min 32 sec) 
Heartbeat CPU 0 instructions: 590000002 cycles: 435317893 heartbeat IPC: 1.29418 cumulative IPC: 1.35401 (Simulation time: 1 hr 10 min 44 sec) 
Heartbeat CPU 0 instructions: 600000004 cycles: 445319995 heartbeat IPC: 0.99979 cumulative IPC: 1.34605 (Simulation time: 1 hr 12 min 4 sec) 
Heartbeat CPU 0 instructions: 610000002 cycles: 457248506 heartbeat IPC: 0.838327 cumulative IPC: 1.33279 (Simulation time: 1 hr 13 min 43 sec) 
Heartbeat CPU 0 instructions: 620000001 cycles: 469247612 heartbeat IPC: 0.833395 cumulative IPC: 1.32002 (Simulation time: 1 hr 15 min 26 sec) 
Heartbeat CPU 0 instructions: 630000003 cycles: 477791892 heartbeat IPC: 1.17037 cumulative IPC: 1.31734 (Simulation time: 1 hr 16 min 53 sec) 
Heartbeat CPU 0 instructions: 640000004 cycles: 499414512 heartbeat IPC: 0.462479 cumulative IPC: 1.2803 (Simulation time: 1 hr 19 min 22 sec) 
Heartbeat CPU 0 instructions: 650000000 cycles: 521665534 heartbeat IPC: 0.449417 cumulative IPC: 1.24484 (Simulation time: 1 hr 21 min 55 sec) 
Heartbeat CPU 0 instructions: 660000001 cycles: 544601440 heartbeat IPC: 0.435998 cumulative IPC: 1.21076 (Simulation time: 1 hr 24 min 29 sec) 
Heartbeat CPU 0 instructions: 670000004 cycles: 580747805 heartbeat IPC: 0.276653 cumulative IPC: 1.15259 (Simulation time: 1 hr 28 min 18 sec) 
Heartbeat CPU 0 instructions: 680000000 cycles: 600907696 heartbeat IPC: 0.496034 cumulative IPC: 1.13055 (Simulation time: 1 hr 30 min 21 sec) 
Heartbeat CPU 0 instructions: 690000003 cycles: 615967995 heartbeat IPC: 0.663998 cumulative IPC: 1.11914 (Simulation time: 1 hr 32 min 8 sec) 
Heartbeat CPU 0 instructions: 700000002 cycles: 629791398 heartbeat IPC: 0.723411 cumulative IPC: 1.11044 (Simulation time: 1 hr 33 min 45 sec) 
Heartbeat CPU 0 instructions: 710000002 cycles: 640156968 heartbeat IPC: 0.964732 cumulative IPC: 1.10808 (Simulation time: 1 hr 35 min 6 sec) 
Heartbeat CPU 0 instructions: 720000000 cycles: 654719806 heartbeat IPC: 0.686679 cumulative IPC: 1.09871 (Simulation time: 1 hr 36 min 48 sec) 
Heartbeat CPU 0 instructions: 730000002 cycles: 661608310 heartbeat IPC: 1.45169 cumulative IPC: 1.10238 (Simulation time: 1 hr 38 min 3 sec) 
Heartbeat CPU 0 instructions: 740000002 cycles: 668438236 heartbeat IPC: 1.46414 cumulative IPC: 1.10608 (Simulation time: 1 hr 39 min 17 sec) 
Heartbeat CPU 0 instructions: 750000003 cycles: 675153408 heartbeat IPC: 1.48917 cumulative IPC: 1.10989 (Simulation time: 1 hr 40 min 31 sec) 
Heartbeat CPU 0 instructions: 760000004 cycles: 682039529 heartbeat IPC: 1.4522 cumulative IPC: 1.11335 (Simulation time: 1 hr 41 min 45 sec) 
Heartbeat CPU 0 instructions: 770000001 cycles: 688694504 heartbeat IPC: 1.50263 cumulative IPC: 1.11711 (Simulation time: 1 hr 42 min 56 sec) 
Heartbeat CPU 0 instructions: 780000001 cycles: 696268429 heartbeat IPC: 1.32032 cumulative IPC: 1.11933 (Simulation time: 1 hr 44 min 10 sec) 
Heartbeat CPU 0 instructions: 790000001 cycles: 704944571 heartbeat IPC: 1.15259 cumulative IPC: 1.11974 (Simulation time: 1 hr 45 min 28 sec) 
Heartbeat CPU 0 instructions: 800000001 cycles: 713357863 heartbeat IPC: 1.1886 cumulative IPC: 1.12055 (Simulation time: 1 hr 46 min 41 sec) 
Heartbeat CPU 0 instructions: 810000000 cycles: 721739126 heartbeat IPC: 1.19314 cumulative IPC: 1.12139 (Simulation time: 1 hr 47 min 56 sec) 
Heartbeat CPU 0 instructions: 820000001 cycles: 729985162 heartbeat IPC: 1.2127 cumulative IPC: 1.12242 (Simulation time: 1 hr 49 min 12 sec) 
Heartbeat CPU 0 instructions: 830000000 cycles: 738617955 heartbeat IPC: 1.15837 cumulative IPC: 1.12284 (Simulation time: 1 hr 50 min 35 sec) 
Heartbeat CPU 0 instructions: 840000002 cycles: 745726340 heartbeat IPC: 1.40679 cumulative IPC: 1.12555 (Simulation time: 1 hr 51 min 51 sec) 
Heartbeat CPU 0 instructions: 850000003 cycles: 753010686 heartbeat IPC: 1.37281 cumulative IPC: 1.12794 (Simulation time: 1 hr 53 min 6 sec) 
Heartbeat CPU 0 instructions: 860000003 cycles: 766379121 heartbeat IPC: 0.748031 cumulative IPC: 1.12131 (Simulation time: 1 hr 54 min 52 sec) 
Heartbeat CPU 0 instructions: 870000003 cycles: 778618520 heartbeat IPC: 0.817034 cumulative IPC: 1.11653 (Simulation time: 1 hr 56 min 21 sec) 
Heartbeat CPU 0 instructions: 880000000 cycles: 786267884 heartbeat IPC: 1.3073 cumulative IPC: 1.11839 (Simulation time: 1 hr 57 min 28 sec) 
Heartbeat CPU 0 instructions: 890000003 cycles: 799034753 heartbeat IPC: 0.783278 cumulative IPC: 1.11303 (Simulation time: 1 hr 59 min 0 sec) 
Heartbeat CPU 0 instructions: 900000001 cycles: 829166065 heartbeat IPC: 0.331881 cumulative IPC: 1.08463 (Simulation time: 2 hr 1 min 59 sec) 
Heartbeat CPU 0 instructions: 910000002 cycles: 843566788 heartbeat IPC: 0.69441 cumulative IPC: 1.07797 (Simulation time: 2 hr 3 min 38 sec) 
Heartbeat CPU 0 instructions: 920000001 cycles: 852738444 heartbeat IPC: 1.09032 cumulative IPC: 1.0781 (Simulation time: 2 hr 4 min 56 sec) 
Heartbeat CPU 0 instructions: 930000002 cycles: 860992779 heartbeat IPC: 1.21148 cumulative IPC: 1.07938 (Simulation time: 2 hr 6 min 10 sec) 
Heartbeat CPU 0 instructions: 940000003 cycles: 869145773 heartbeat IPC: 1.22654 cumulative IPC: 1.08076 (Simulation time: 2 hr 7 min 24 sec) 
Heartbeat CPU 0 instructions: 950000000 cycles: 877507296 heartbeat IPC: 1.19595 cumulative IPC: 1.08186 (Simulation time: 2 hr 8 min 37 sec) 
Heartbeat CPU 0 instructions: 960000001 cycles: 885762184 heartbeat IPC: 1.2114 cumulative IPC: 1.08307 (Simulation time: 2 hr 9 min 50 sec) 
Heartbeat CPU 0 instructions: 970000003 cycles: 893977139 heartbeat IPC: 1.21729 cumulative IPC: 1.0843 (Simulation time: 2 hr 11 min 3 sec) 
Heartbeat CPU 0 instructions: 980000000 cycles: 902129564 heartbeat IPC: 1.22663 cumulative IPC: 1.08559 (Simulation time: 2 hr 12 min 15 sec) 
Heartbeat CPU 0 instructions: 990000000 cycles: 910413395 heartbeat IPC: 1.20717 cumulative IPC: 1.08669 (Simulation time: 2 hr 13 min 27 sec) 
Heartbeat CPU 0 instructions: 1000000001 cycles: 925826357 heartbeat IPC: 0.648805 cumulative IPC: 1.0794 (Simulation time: 2 hr 15 min 11 sec) 
Finished CPU 0 instructions: 1000000003 cycles: 926883118 cumulative IPC: 1.07888 (Simulation time: 2 hr 15 min 21 sec) 

ChampSim completed all CPUs

Region of Interest Statistics

CPU 0 cumulative IPC: 1.07888 instructions: 1000000003 cycles: 926883118
cpu0_DTLB TOTAL     ACCESS:  277172139  HIT:  276949996  MISS:     222143
cpu0_DTLB LOAD      ACCESS:  242959159  HIT:  242782585  MISS:     176574
cpu0_DTLB RFO       ACCESS:   34212980  HIT:   34167411  MISS:      45569
cpu0_DTLB PREFETCH  ACCESS:          0  HIT:          0  MISS:          0
cpu0_DTLB WRITEBACK ACCESS:          0  HIT:          0  MISS:          0
cpu0_DTLB TRANSLATION ACCESS:          0  HIT:          0  MISS:          0
cpu0_DTLB PREFETCH  REQUESTED:          0  ISSUED:          0  USEFUL:          0  USELESS:          0
cpu0_DTLB AVERAGE MISS LATENCY: 66.4202 cycles
cpu0_ITLB TOTAL     ACCESS:    6700269  HIT:    6700171  MISS:         98
cpu0_ITLB LOAD      ACCESS:    6700269  HIT:    6700171  MISS:         98
cpu0_ITLB RFO       ACCESS:          0  HIT:          0  MISS:          0
cpu0_ITLB PREFETCH  ACCESS:          0  HIT:          0  MISS:          0
cpu0_ITLB WRITEBACK ACCESS:          0  HIT:          0  MISS:          0
cpu0_ITLB TRANSLATION ACCESS:          0  HIT:          0  MISS:          0
cpu0_ITLB PREFETCH  REQUESTED:          0  ISSUED:          0  USEFUL:          0  USELESS:          0
cpu0_ITLB AVERAGE MISS LATENCY: 345.969 cycles
cpu0_L1I TOTAL     ACCESS:    5243253  HIT:    5240387  MISS:       2866
cpu0_L1I LOAD      ACCESS:    5243253  HIT:    5240387  MISS:       2866
cpu0_L1I RFO       ACCESS:          0  HIT:          0  MISS:          0
cpu0_L1I PREFETCH  ACCESS:          0  HIT:          0  MISS:          0
cpu0_L1I WRITEBACK ACCESS:          0  HIT:          0  MISS:          0
cpu0_L1I TRANSLATION ACCESS:          0  HIT:          0  MISS:          0
cpu0_L1I PREFETCH  REQUESTED:          0  ISSUED:          0  USEFUL:          0  USELESS:          0
cpu0_L1I AVERAGE MISS LATENCY: 596.237 cycles
cpu0_STLB TOTAL     ACCESS:     222241  HIT:     126958  MISS:      95283
cpu0_STLB LOAD      ACCESS:     176672  HIT:      93477  MISS:      83195
cpu0_STLB RFO       ACCESS:      45569  HIT:      33481  MISS:      12088
cpu0_STLB PREFETCH  ACCESS:          0  HIT:          0  MISS:          0
cpu0_STLB WRITEBACK ACCESS:          0  HIT:          0  MISS:          0
cpu0_STLB TRANSLATION ACCESS:          0  HIT:          0  MISS:          0
cpu0_STLB PREFETCH  REQUESTED:          0  ISSUED:          0  USEFUL:          0  USELESS:          0
cpu0_STLB AVERAGE MISS LATENCY: 133.857 cycles
cpu0_L1D TOTAL     ACCESS:  474844744  HIT:  464955964  MISS:    9888780
cpu0_L1D LOAD      ACCESS:  248909699  HIT:  245730279  MISS:    3179420
cpu0_L1D RFO       ACCESS:   46500820  HIT:   45260109  MISS:    1240711
cpu0_L1D PREFETCH  ACCESS:  179341142  HIT:  173895631  MISS:    5445511
cpu0_L1D WRITEBACK ACCESS:          0  HIT:          0  MISS:          0
cpu0_L1D TRANSLATION ACCESS:      93083  HIT:      69945  MISS:      23138
cpu0_L1D PREFETCH  REQUESTED:  255966121  ISSUED:  234198057  USEFUL:    8126736  USELESS:     102219
cpu0_L1D AVERAGE MISS LATENCY: 213.908 cycles
cpu0_L2C TOTAL     ACCESS:   13310811  HIT:    6640200  MISS:    6670611
cpu0_L2C LOAD      ACCESS:     398897  HIT:     145170  MISS:     253727
cpu0_L2C RFO       ACCESS:    1240593  HIT:     561063  MISS:     679530
cpu0_L2C PREFETCH  ACCESS:    8832667  HIT:    3099991  MISS:    5732676
cpu0_L2C WRITEBACK ACCESS:    2815516  HIT:    2813279  MISS:       2237
cpu0_L2C TRANSLATION ACCESS:      23138  HIT:      20697  MISS:       2441
cpu0_L2C PREFETCH  REQUESTED:     670996  ISSUED:     644199  USEFUL:      23907  USELESS:      17492
cpu0_L2C AVERAGE MISS LATENCY: 551.331 cycles
LLC TOTAL     ACCESS:    8741303  HIT:    1358982  MISS:    7382321
LLC LOAD      ACCESS:     253726  HIT:      60588  MISS:     193138
LLC RFO       ACCESS:     679526  HIT:      50039  MISS:     629487
LLC PREFETCH  ACCESS:    5739043  HIT:     585220  MISS:    5153823
LLC WRITEBACK ACCESS:    2066567  HIT:     661620  MISS:    1404947
LLC TRANSLATION ACCESS:       2441  HIT:       1515  MISS:        926
LLC PREFETCH  REQUESTED:          0  ISSUED:          0  USEFUL:          0  USELESS:          0
LLC AVERAGE MISS LATENCY: 475.447 cycles
OPTgen accesses: 16509
OPTgen hits: 8307
OPTgen hit rate: 50.318



DRAM Statistics
 CHANNEL 0
 RQ ROW_BUFFER_HIT:     191791  ROW_BUFFER_MISS:    5783467
 DBUS AVG_CONGESTED_CYCLE:    3.96476
 WQ ROW_BUFFER_HIT:     139392  ROW_BUFFER_MISS:    1735147  FULL:       2804


CPU 0 Branch Prediction Accuracy: 99.2233% MPKI: 0.294287 Average ROB Occupancy at Mispredict: 124.078
Branch type MPKI
BRANCH_DIRECT_JUMP: 0.00025
BRANCH_INDIRECT: 0
BRANCH_CONDITIONAL: 0.293873
BRANCH_DIRECT_CALL: 8.6e-05
BRANCH_INDIRECT_CALL: 0
BRANCH_RETURN: 7.8e-05

