
*** ChampSim Multicore Out-of-Order Simulator ***

Warmup Instructions: 1000000
Simulation Instructions: 1000000000
Number of CPUs: 1
Off-chip DRAM Size: 4 GiB Channels: 1 Width: 64-bit Data Rate: 3200 MT/s

VirtualMemory physical capacity: 8588881920 num_ppages: 2096895
VirtualMemory page size: 4096 log2_page_size: 12

CPU 0 runs tracer/pin/traces/spec2k17/619.lbm_s-4268B.champsimtrace.xz
Basic BTB sets: 1024 ways: 8 indirect buffer size: 4096 RAS size: 64
cpu0_L1D next line prefetcher
cpu0_L2C IP-based stride prefetcher
Initialize Hawkeye state
WARNING: The extended signature CACHE::prefetch_line(ip, base_addr, pf_addr, fill_this_level, prefetch_metadata) is deprecated.
WARNING: Use CACHE::prefetch_line(pf_addr, fill_this_level, prefetch_metadata) instead.

Warmup complete CPU 0 instructions: 1000003 cycles: 273200 (Simulation time: 0 hr 0 min 2 sec) 

Heartbeat CPU 0 instructions: 10000004 cycles: 86937111 heartbeat IPC: 0.115026 cumulative IPC: 0.103849 (Simulation time: 0 hr 4 min 55 sec) 
Heartbeat CPU 0 instructions: 20000001 cycles: 184702842 heartbeat IPC: 0.102285 cumulative IPC: 0.10302 (Simulation time: 0 hr 10 min 50 sec) 
Heartbeat CPU 0 instructions: 30000000 cycles: 282301679 heartbeat IPC: 0.10246 cumulative IPC: 0.102826 (Simulation time: 0 hr 17 min 52 sec) 
Heartbeat CPU 0 instructions: 40000002 cycles: 380292710 heartbeat IPC: 0.10205 cumulative IPC: 0.102626 (Simulation time: 0 hr 26 min 51 sec) 
Heartbeat CPU 0 instructions: 50000000 cycles: 479463155 heartbeat IPC: 0.100836 cumulative IPC: 0.102256 (Simulation time: 0 hr 36 min 49 sec) 
Heartbeat CPU 0 instructions: 60000003 cycles: 580940001 heartbeat IPC: 0.0985447 cumulative IPC: 0.101607 (Simulation time: 0 hr 46 min 59 sec) 
Heartbeat CPU 0 instructions: 70000001 cycles: 681323884 heartbeat IPC: 0.0996176 cumulative IPC: 0.101314 (Simulation time: 0 hr 57 min 7 sec) 
Heartbeat CPU 0 instructions: 80000002 cycles: 780883477 heartbeat IPC: 0.100442 cumulative IPC: 0.101203 (Simulation time: 1 hr 7 min 6 sec) 
Heartbeat CPU 0 instructions: 90000000 cycles: 879494709 heartbeat IPC: 0.101408 cumulative IPC: 0.101226 (Simulation time: 1 hr 16 min 59 sec) 
Heartbeat CPU 0 instructions: 100000004 cycles: 977777583 heartbeat IPC: 0.101747 cumulative IPC: 0.101278 (Simulation time: 1 hr 26 min 50 sec) 
Heartbeat CPU 0 instructions: 110000004 cycles: 1077359852 heartbeat IPC: 0.100419 cumulative IPC: 0.101199 (Simulation time: 1 hr 36 min 20 sec) 
Heartbeat CPU 0 instructions: 120000000 cycles: 1176662351 heartbeat IPC: 0.100702 cumulative IPC: 0.101157 (Simulation time: 1 hr 45 min 17 sec) 
Heartbeat CPU 0 instructions: 130000001 cycles: 1274801182 heartbeat IPC: 0.101896 cumulative IPC: 0.101214 (Simulation time: 1 hr 53 min 19 sec) 
Heartbeat CPU 0 instructions: 140000001 cycles: 1375213159 heartbeat IPC: 0.0995897 cumulative IPC: 0.101095 (Simulation time: 2 hr 0 min 11 sec) 
Heartbeat CPU 0 instructions: 150000001 cycles: 1474920507 heartbeat IPC: 0.100294 cumulative IPC: 0.101041 (Simulation time: 2 hr 7 min 12 sec) 
Heartbeat CPU 0 instructions: 160000001 cycles: 1576909741 heartbeat IPC: 0.0980496 cumulative IPC: 0.100848 (Simulation time: 2 hr 15 min 20 sec) 
Heartbeat CPU 0 instructions: 170000001 cycles: 1676938612 heartbeat IPC: 0.0999711 cumulative IPC: 0.100795 (Simulation time: 2 hr 24 min 19 sec) 
Heartbeat CPU 0 instructions: 180000004 cycles: 1777478276 heartbeat IPC: 0.0994633 cumulative IPC: 0.10072 (Simulation time: 2 hr 33 min 10 sec) 
Heartbeat CPU 0 instructions: 190000004 cycles: 1878603594 heartbeat IPC: 0.0988872 cumulative IPC: 0.100621 (Simulation time: 2 hr 41 min 2 sec) 
Heartbeat CPU 0 instructions: 200000002 cycles: 1978709682 heartbeat IPC: 0.099894 cumulative IPC: 0.100584 (Simulation time: 2 hr 48 min 28 sec) 
Heartbeat CPU 0 instructions: 210000001 cycles: 2081545414 heartbeat IPC: 0.0972425 cumulative IPC: 0.100419 (Simulation time: 2 hr 56 min 2 sec) 
Heartbeat CPU 0 instructions: 220000001 cycles: 2182485546 heartbeat IPC: 0.0990686 cumulative IPC: 0.100357 (Simulation time: 3 hr 3 min 12 sec) 
Heartbeat CPU 0 instructions: 230000002 cycles: 2283116121 heartbeat IPC: 0.0993734 cumulative IPC: 0.100314 (Simulation time: 3 hr 9 min 52 sec) 
Heartbeat CPU 0 instructions: 240000000 cycles: 2385150574 heartbeat IPC: 0.0980061 cumulative IPC: 0.100215 (Simulation time: 3 hr 16 min 41 sec) 
Heartbeat CPU 0 instructions: 250000003 cycles: 2483642739 heartbeat IPC: 0.101531 cumulative IPC: 0.100267 (Simulation time: 3 hr 22 min 37 sec) 
Heartbeat CPU 0 instructions: 260000000 cycles: 2584440613 heartbeat IPC: 0.0992084 cumulative IPC: 0.100226 (Simulation time: 3 hr 28 min 25 sec) 
Heartbeat CPU 0 instructions: 270000003 cycles: 2683403515 heartbeat IPC: 0.101048 cumulative IPC: 0.100256 (Simulation time: 3 hr 33 min 57 sec) 
Heartbeat CPU 0 instructions: 280000001 cycles: 2781085859 heartbeat IPC: 0.102373 cumulative IPC: 0.10033 (Simulation time: 3 hr 39 min 24 sec) 
Heartbeat CPU 0 instructions: 290000001 cycles: 2880365811 heartbeat IPC: 0.100725 cumulative IPC: 0.100344 (Simulation time: 3 hr 44 min 56 sec) 
Heartbeat CPU 0 instructions: 300000001 cycles: 2980008027 heartbeat IPC: 0.100359 cumulative IPC: 0.100345 (Simulation time: 3 hr 50 min 29 sec) 
Heartbeat CPU 0 instructions: 310000004 cycles: 3080928460 heartbeat IPC: 0.099088 cumulative IPC: 0.100303 (Simulation time: 3 hr 56 min 5 sec) 
Heartbeat CPU 0 instructions: 320000001 cycles: 3179452677 heartbeat IPC: 0.101498 cumulative IPC: 0.10034 (Simulation time: 4 hr 1 min 35 sec) 
Heartbeat CPU 0 instructions: 330000000 cycles: 3278279020 heartbeat IPC: 0.101188 cumulative IPC: 0.100366 (Simulation time: 4 hr 7 min 5 sec) 
Heartbeat CPU 0 instructions: 340000004 cycles: 3375336170 heartbeat IPC: 0.103032 cumulative IPC: 0.100443 (Simulation time: 4 hr 12 min 30 sec) 
Heartbeat CPU 0 instructions: 350000002 cycles: 3471294350 heartbeat IPC: 0.104212 cumulative IPC: 0.100547 (Simulation time: 4 hr 17 min 50 sec) 
Heartbeat CPU 0 instructions: 360000002 cycles: 3570086406 heartbeat IPC: 0.101223 cumulative IPC: 0.100565 (Simulation time: 4 hr 23 min 21 sec) 
Heartbeat CPU 0 instructions: 370000002 cycles: 3665589686 heartbeat IPC: 0.104708 cumulative IPC: 0.100673 (Simulation time: 4 hr 28 min 41 sec) 
Heartbeat CPU 0 instructions: 380000000 cycles: 3763795421 heartbeat IPC: 0.101827 cumulative IPC: 0.100704 (Simulation time: 4 hr 34 min 9 sec) 
Heartbeat CPU 0 instructions: 390000003 cycles: 3861467987 heartbeat IPC: 0.102383 cumulative IPC: 0.100746 (Simulation time: 4 hr 39 min 35 sec) 
Heartbeat CPU 0 instructions: 400000000 cycles: 3957411664 heartbeat IPC: 0.104228 cumulative IPC: 0.10083 (Simulation time: 4 hr 44 min 56 sec) 
Heartbeat CPU 0 instructions: 410000002 cycles: 4054487796 heartbeat IPC: 0.103012 cumulative IPC: 0.100883 (Simulation time: 4 hr 50 min 21 sec) 
Heartbeat CPU 0 instructions: 420000004 cycles: 4152233907 heartbeat IPC: 0.102306 cumulative IPC: 0.100916 (Simulation time: 4 hr 55 min 48 sec) 
Heartbeat CPU 0 instructions: 430000000 cycles: 4252495467 heartbeat IPC: 0.0997391 cumulative IPC: 0.100888 (Simulation time: 5 hr 1 min 22 sec) 
Heartbeat CPU 0 instructions: 440000000 cycles: 4352345249 heartbeat IPC: 0.10015 cumulative IPC: 0.100871 (Simulation time: 5 hr 6 min 55 sec) 
Heartbeat CPU 0 instructions: 450000001 cycles: 4449149515 heartbeat IPC: 0.103301 cumulative IPC: 0.100924 (Simulation time: 5 hr 12 min 19 sec) 
Heartbeat CPU 0 instructions: 460000002 cycles: 4543042599 heartbeat IPC: 0.106504 cumulative IPC: 0.10104 (Simulation time: 5 hr 17 min 34 sec) 
Heartbeat CPU 0 instructions: 470000002 cycles: 4637380755 heartbeat IPC: 0.106002 cumulative IPC: 0.101141 (Simulation time: 5 hr 22 min 50 sec) 
Heartbeat CPU 0 instructions: 480000004 cycles: 4727249363 heartbeat IPC: 0.111274 cumulative IPC: 0.101333 (Simulation time: 5 hr 27 min 53 sec) 
Heartbeat CPU 0 instructions: 490000002 cycles: 4814412178 heartbeat IPC: 0.114728 cumulative IPC: 0.101576 (Simulation time: 5 hr 32 min 47 sec) 
Heartbeat CPU 0 instructions: 500000000 cycles: 4896147935 heartbeat IPC: 0.122345 cumulative IPC: 0.101923 (Simulation time: 5 hr 37 min 24 sec) 
Heartbeat CPU 0 instructions: 510000003 cycles: 4975947192 heartbeat IPC: 0.125314 cumulative IPC: 0.102298 (Simulation time: 5 hr 41 min 55 sec) 
Heartbeat CPU 0 instructions: 520000003 cycles: 5051705331 heartbeat IPC: 0.131999 cumulative IPC: 0.102743 (Simulation time: 5 hr 46 min 13 sec) 
Heartbeat CPU 0 instructions: 530000001 cycles: 5123507941 heartbeat IPC: 0.139271 cumulative IPC: 0.103255 (Simulation time: 5 hr 50 min 19 sec) 
Heartbeat CPU 0 instructions: 540000003 cycles: 5192764483 heartbeat IPC: 0.144391 cumulative IPC: 0.103804 (Simulation time: 5 hr 54 min 17 sec) 
Heartbeat CPU 0 instructions: 550000004 cycles: 5258520887 heartbeat IPC: 0.152076 cumulative IPC: 0.104407 (Simulation time: 5 hr 58 min 4 sec) 
Heartbeat CPU 0 instructions: 560000002 cycles: 5323553779 heartbeat IPC: 0.153768 cumulative IPC: 0.10501 (Simulation time: 6 hr 1 min 48 sec) 
Heartbeat CPU 0 instructions: 570000003 cycles: 5385764616 heartbeat IPC: 0.160744 cumulative IPC: 0.105654 (Simulation time: 6 hr 5 min 23 sec) 
Heartbeat CPU 0 instructions: 580000000 cycles: 5447666248 heartbeat IPC: 0.161547 cumulative IPC: 0.106289 (Simulation time: 6 hr 8 min 58 sec) 
Heartbeat CPU 0 instructions: 590000003 cycles: 5507131417 heartbeat IPC: 0.168166 cumulative IPC: 0.106958 (Simulation time: 6 hr 12 min 25 sec) 
Heartbeat CPU 0 instructions: 600000004 cycles: 5566448648 heartbeat IPC: 0.168585 cumulative IPC: 0.107614 (Simulation time: 6 hr 15 min 51 sec) 
Heartbeat CPU 0 instructions: 610000002 cycles: 5621885370 heartbeat IPC: 0.180386 cumulative IPC: 0.108332 (Simulation time: 6 hr 19 min 5 sec) 
Heartbeat CPU 0 instructions: 620000003 cycles: 5677866295 heartbeat IPC: 0.178632 cumulative IPC: 0.109025 (Simulation time: 6 hr 22 min 21 sec) 
Heartbeat CPU 0 instructions: 630000004 cycles: 5733282385 heartbeat IPC: 0.180453 cumulative IPC: 0.109716 (Simulation time: 6 hr 25 min 35 sec) 
Heartbeat CPU 0 instructions: 640000002 cycles: 5787104113 heartbeat IPC: 0.185799 cumulative IPC: 0.110423 (Simulation time: 6 hr 28 min 44 sec) 
Heartbeat CPU 0 instructions: 650000004 cycles: 5841700898 heartbeat IPC: 0.183161 cumulative IPC: 0.111103 (Simulation time: 6 hr 31 min 56 sec) 
Heartbeat CPU 0 instructions: 660000002 cycles: 5895189144 heartbeat IPC: 0.186957 cumulative IPC: 0.111791 (Simulation time: 6 hr 35 min 4 sec) 
Heartbeat CPU 0 instructions: 670000001 cycles: 5947808298 heartbeat IPC: 0.190045 cumulative IPC: 0.112484 (Simulation time: 6 hr 38 min 9 sec) 
Heartbeat CPU 0 instructions: 680000004 cycles: 6000149719 heartbeat IPC: 0.191053 cumulative IPC: 0.113169 (Simulation time: 6 hr 41 min 14 sec) 
Heartbeat CPU 0 instructions: 690000001 cycles: 6052359430 heartbeat IPC: 0.191535 cumulative IPC: 0.113845 (Simulation time: 6 hr 44 min 18 sec) 
Heartbeat CPU 0 instructions: 700000000 cycles: 6104960169 heartbeat IPC: 0.190111 cumulative IPC: 0.114502 (Simulation time: 6 hr 47 min 23 sec) 
Heartbeat CPU 0 instructions: 710000002 cycles: 6157050407 heartbeat IPC: 0.191975 cumulative IPC: 0.115158 (Simulation time: 6 hr 50 min 26 sec) 
Heartbeat CPU 0 instructions: 720000000 cycles: 6207770577 heartbeat IPC: 0.19716 cumulative IPC: 0.115828 (Simulation time: 6 hr 53 min 26 sec) 
Heartbeat CPU 0 instructions: 730000004 cycles: 6259169432 heartbeat IPC: 0.194557 cumulative IPC: 0.116474 (Simulation time: 6 hr 56 min 27 sec) 
Heartbeat CPU 0 instructions: 740000003 cycles: 6310258914 heartbeat IPC: 0.195735 cumulative IPC: 0.117116 (Simulation time: 6 hr 59 min 28 sec) 
Heartbeat CPU 0 instructions: 750000004 cycles: 6361153180 heartbeat IPC: 0.196486 cumulative IPC: 0.117751 (Simulation time: 7 hr 2 min 28 sec) 
Heartbeat CPU 0 instructions: 760000001 cycles: 6412232671 heartbeat IPC: 0.195773 cumulative IPC: 0.118373 (Simulation time: 7 hr 5 min 28 sec) 
Heartbeat CPU 0 instructions: 770000002 cycles: 6463771367 heartbeat IPC: 0.194029 cumulative IPC: 0.118976 (Simulation time: 7 hr 8 min 30 sec) 
Heartbeat CPU 0 instructions: 780000003 cycles: 6514078230 heartbeat IPC: 0.19878 cumulative IPC: 0.119592 (Simulation time: 7 hr 11 min 28 sec) 
Heartbeat CPU 0 instructions: 790000004 cycles: 6565172711 heartbeat IPC: 0.195716 cumulative IPC: 0.120185 (Simulation time: 7 hr 14 min 28 sec) 
Heartbeat CPU 0 instructions: 800000001 cycles: 6615697274 heartbeat IPC: 0.197923 cumulative IPC: 0.120778 (Simulation time: 7 hr 17 min 27 sec) 
Heartbeat CPU 0 instructions: 810000002 cycles: 6666893422 heartbeat IPC: 0.195327 cumulative IPC: 0.121351 (Simulation time: 7 hr 20 min 28 sec) 
Heartbeat CPU 0 instructions: 820000003 cycles: 6718563598 heartbeat IPC: 0.193535 cumulative IPC: 0.121906 (Simulation time: 7 hr 23 min 30 sec) 
Heartbeat CPU 0 instructions: 830000000 cycles: 6768762897 heartbeat IPC: 0.199206 cumulative IPC: 0.122479 (Simulation time: 7 hr 26 min 28 sec) 
Heartbeat CPU 0 instructions: 840000001 cycles: 6820150151 heartbeat IPC: 0.194601 cumulative IPC: 0.123023 (Simulation time: 7 hr 29 min 29 sec) 
Heartbeat CPU 0 instructions: 850000003 cycles: 6870363692 heartbeat IPC: 0.19915 cumulative IPC: 0.123579 (Simulation time: 7 hr 32 min 27 sec) 
Heartbeat CPU 0 instructions: 860000004 cycles: 6921294613 heartbeat IPC: 0.196344 cumulative IPC: 0.124115 (Simulation time: 7 hr 35 min 27 sec) 
Heartbeat CPU 0 instructions: 870000001 cycles: 6973086378 heartbeat IPC: 0.193081 cumulative IPC: 0.124627 (Simulation time: 7 hr 38 min 29 sec) 
Heartbeat CPU 0 instructions: 880000002 cycles: 7024277182 heartbeat IPC: 0.195348 cumulative IPC: 0.125142 (Simulation time: 7 hr 41 min 30 sec) 
Heartbeat CPU 0 instructions: 890000004 cycles: 7075272410 heartbeat IPC: 0.196097 cumulative IPC: 0.125654 (Simulation time: 7 hr 44 min 30 sec) 
Heartbeat CPU 0 instructions: 900000000 cycles: 7126494722 heartbeat IPC: 0.195227 cumulative IPC: 0.126154 (Simulation time: 7 hr 47 min 31 sec) 
Heartbeat CPU 0 instructions: 910000002 cycles: 7176975366 heartbeat IPC: 0.198096 cumulative IPC: 0.12666 (Simulation time: 7 hr 50 min 29 sec) 
Heartbeat CPU 0 instructions: 920000003 cycles: 7228589592 heartbeat IPC: 0.193745 cumulative IPC: 0.127139 (Simulation time: 7 hr 53 min 31 sec) 
Heartbeat CPU 0 instructions: 930000000 cycles: 7279503749 heartbeat IPC: 0.196409 cumulative IPC: 0.127623 (Simulation time: 7 hr 56 min 31 sec) 
Heartbeat CPU 0 instructions: 940000002 cycles: 7333661839 heartbeat IPC: 0.184645 cumulative IPC: 0.128044 (Simulation time: 7 hr 59 min 41 sec) 
Heartbeat CPU 0 instructions: 950000000 cycles: 7468937875 heartbeat IPC: 0.0739229 cumulative IPC: 0.127064 (Simulation time: 8 hr 7 min 11 sec) 
Heartbeat CPU 0 instructions: 960000001 cycles: 7575697611 heartbeat IPC: 0.0936683 cumulative IPC: 0.126594 (Simulation time: 8 hr 13 min 11 sec) 
Heartbeat CPU 0 instructions: 970000001 cycles: 7629620321 heartbeat IPC: 0.185451 cumulative IPC: 0.12701 (Simulation time: 8 hr 16 min 20 sec) 
Heartbeat CPU 0 instructions: 980000004 cycles: 7680519728 heartbeat IPC: 0.196466 cumulative IPC: 0.12747 (Simulation time: 8 hr 19 min 21 sec) 
Heartbeat CPU 0 instructions: 990000004 cycles: 7731724246 heartbeat IPC: 0.195295 cumulative IPC: 0.127919 (Simulation time: 8 hr 22 min 22 sec) 
Heartbeat CPU 0 instructions: 1000000001 cycles: 7782100541 heartbeat IPC: 0.198506 cumulative IPC: 0.128376 (Simulation time: 8 hr 25 min 21 sec) 
Finished CPU 0 instructions: 1000000002 cycles: 7786913075 cumulative IPC: 0.128421 (Simulation time: 8 hr 25 min 39 sec) 

ChampSim completed all CPUs

Region of Interest Statistics

CPU 0 cumulative IPC: 0.128421 instructions: 1000000002 cycles: 7786913075
cpu0_DTLB TOTAL     ACCESS:  179616804  HIT:  178581077  MISS:    1035727
cpu0_DTLB LOAD      ACCESS:   94582859  HIT:   94442160  MISS:     140699
cpu0_DTLB RFO       ACCESS:   85033945  HIT:   84138917  MISS:     895028
cpu0_DTLB PREFETCH  ACCESS:          0  HIT:          0  MISS:          0
cpu0_DTLB WRITEBACK ACCESS:          0  HIT:          0  MISS:          0
cpu0_DTLB TRANSLATION ACCESS:          0  HIT:          0  MISS:          0
cpu0_DTLB PREFETCH  REQUESTED:          0  ISSUED:          0  USEFUL:          0  USELESS:          0
cpu0_DTLB AVERAGE MISS LATENCY: 582.861 cycles
cpu0_ITLB TOTAL     ACCESS:   10130627  HIT:   10130626  MISS:          1
cpu0_ITLB LOAD      ACCESS:   10130627  HIT:   10130626  MISS:          1
cpu0_ITLB RFO       ACCESS:          0  HIT:          0  MISS:          0
cpu0_ITLB PREFETCH  ACCESS:          0  HIT:          0  MISS:          0
cpu0_ITLB WRITEBACK ACCESS:          0  HIT:          0  MISS:          0
cpu0_ITLB TRANSLATION ACCESS:          0  HIT:          0  MISS:          0
cpu0_ITLB PREFETCH  REQUESTED:          0  ISSUED:          0  USEFUL:          0  USELESS:          0
cpu0_ITLB AVERAGE MISS LATENCY: 2955 cycles
cpu0_L1I TOTAL     ACCESS:   26445928  HIT:   26445925  MISS:          3
cpu0_L1I LOAD      ACCESS:   26445928  HIT:   26445925  MISS:          3
cpu0_L1I RFO       ACCESS:          0  HIT:          0  MISS:          0
cpu0_L1I PREFETCH  ACCESS:          0  HIT:          0  MISS:          0
cpu0_L1I WRITEBACK ACCESS:          0  HIT:          0  MISS:          0
cpu0_L1I TRANSLATION ACCESS:          0  HIT:          0  MISS:          0
cpu0_L1I PREFETCH  REQUESTED:          0  ISSUED:          0  USEFUL:          0  USELESS:          0
cpu0_L1I AVERAGE MISS LATENCY: 727 cycles
cpu0_STLB TOTAL     ACCESS:    1035728  HIT:     473069  MISS:     562659
cpu0_STLB LOAD      ACCESS:     140700  HIT:          1  MISS:     140699
cpu0_STLB RFO       ACCESS:     895028  HIT:     473068  MISS:     421960
cpu0_STLB PREFETCH  ACCESS:          0  HIT:          0  MISS:          0
cpu0_STLB WRITEBACK ACCESS:          0  HIT:          0  MISS:          0
cpu0_STLB TRANSLATION ACCESS:          0  HIT:          0  MISS:          0
cpu0_STLB PREFETCH  REQUESTED:          0  ISSUED:          0  USEFUL:          0  USELESS:          0
cpu0_STLB AVERAGE MISS LATENCY: 1056.22 cycles
cpu0_L1D TOTAL     ACCESS:  346372118  HIT:  286708137  MISS:   59663981
cpu0_L1D LOAD      ACCESS:   95869741  HIT:   88975011  MISS:    6894730
cpu0_L1D RFO       ACCESS:  167120402  HIT:  116708232  MISS:   50412170
cpu0_L1D PREFETCH  ACCESS:   82850721  HIT:   80579069  MISS:    2271652
cpu0_L1D WRITEBACK ACCESS:          0  HIT:          0  MISS:          0
cpu0_L1D TRANSLATION ACCESS:     531254  HIT:     445825  MISS:      85429
cpu0_L1D PREFETCH  REQUESTED:   97248128  ISSUED:   90552889  USEFUL:    2423233  USELESS:      84535
cpu0_L1D AVERAGE MISS LATENCY: 892.65 cycles
cpu0_L2C TOTAL     ACCESS:  113017984  HIT:   67413568  MISS:   45604416
cpu0_L2C LOAD      ACCESS:    6659357  HIT:       4194  MISS:    6655163
cpu0_L2C RFO       ACCESS:   50411030  HIT:   14390701  MISS:   36020329
cpu0_L2C PREFETCH  ACCESS:    5449929  HIT:    2533466  MISS:    2916463
cpu0_L2C WRITEBACK ACCESS:   50412239  HIT:   50401600  MISS:      10639
cpu0_L2C TRANSLATION ACCESS:      85429  HIT:      83607  MISS:       1822
cpu0_L2C PREFETCH  REQUESTED:    3451473  ISSUED:    3212224  USEFUL:     366758  USELESS:      51770
cpu0_L2C AVERAGE MISS LATENCY: 1171.66 cycles
LLC TOTAL     ACCESS:   81716752  HIT:   25394367  MISS:   56322385
LLC LOAD      ACCESS:    6655163  HIT:       2734  MISS:    6652429
LLC RFO       ACCESS:   35998606  HIT:    8382516  MISS:   27616090
LLC PREFETCH  ACCESS:    3030576  HIT:      93275  MISS:    2937301
LLC WRITEBACK ACCESS:   36030585  HIT:   16915237  MISS:   19115348
LLC TRANSLATION ACCESS:       1822  HIT:        605  MISS:       1217
LLC PREFETCH  REQUESTED:          0  ISSUED:          0  USEFUL:          0  USELESS:          0
LLC AVERAGE MISS LATENCY: 930.078 cycles
OPTgen accesses: 667894
OPTgen hits: 146868
OPTgen hit rate: 21.9897



DRAM Statistics
 CHANNEL 0
 RQ ROW_BUFFER_HIT:     650415  ROW_BUFFER_MISS:   36503029
 DBUS AVG_CONGESTED_CYCLE:    3.99665
 WQ ROW_BUFFER_HIT:     259080  ROW_BUFFER_MISS:   32062918  FULL:          0


CPU 0 Branch Prediction Accuracy: 98.1434% MPKI: 0.27779 Average ROB Occupancy at Mispredict: 124.835
Branch type MPKI
BRANCH_DIRECT_JUMP: 3e-06
BRANCH_INDIRECT: 0
BRANCH_CONDITIONAL: 0.277783
BRANCH_DIRECT_CALL: 2e-06
BRANCH_INDIRECT_CALL: 0
BRANCH_RETURN: 2e-06

