
*** ChampSim Multicore Out-of-Order Simulator ***

Warmup Instructions: 1000000
Simulation Instructions: 1000000000
Number of CPUs: 1
Off-chip DRAM Size: 4 GiB Channels: 1 Width: 64-bit Data Rate: 3200 MT/s

VirtualMemory physical capacity: 8588881920 num_ppages: 2096895
VirtualMemory page size: 4096 log2_page_size: 12

CPU 0 runs tracer/pin/traces/spec2k17/654.roms_s-842B.champsimtrace.xz
Basic BTB sets: 1024 ways: 8 indirect buffer size: 4096 RAS size: 64
cpu0_L1D next line prefetcher
cpu0_L2C IP-based stride prefetcher
Initialize Hawkeye state
WARNING: The extended signature CACHE::prefetch_line(ip, base_addr, pf_addr, fill_this_level, prefetch_metadata) is deprecated.
WARNING: Use CACHE::prefetch_line(pf_addr, fill_this_level, prefetch_metadata) instead.

Warmup complete CPU 0 instructions: 1000004 cycles: 251084 (Simulation time: 0 hr 0 min 2 sec) 

Heartbeat CPU 0 instructions: 10000000 cycles: 6170809 heartbeat IPC: 1.62053 cumulative IPC: 1.52034 (Simulation time: 0 hr 0 min 36 sec) 
Heartbeat CPU 0 instructions: 20000002 cycles: 12752966 heartbeat IPC: 1.51926 cumulative IPC: 1.51977 (Simulation time: 0 hr 1 min 15 sec) 
Heartbeat CPU 0 instructions: 30000000 cycles: 19331363 heartbeat IPC: 1.52013 cumulative IPC: 1.51989 (Simulation time: 0 hr 1 min 52 sec) 
Heartbeat CPU 0 instructions: 40000004 cycles: 25919482 heartbeat IPC: 1.51788 cumulative IPC: 1.51938 (Simulation time: 0 hr 2 min 31 sec) 
Heartbeat CPU 0 instructions: 50000000 cycles: 32536534 heartbeat IPC: 1.51125 cumulative IPC: 1.51771 (Simulation time: 0 hr 3 min 13 sec) 
Heartbeat CPU 0 instructions: 60000003 cycles: 39125359 heartbeat IPC: 1.51772 cumulative IPC: 1.51771 (Simulation time: 0 hr 3 min 49 sec) 
Heartbeat CPU 0 instructions: 70000000 cycles: 45710599 heartbeat IPC: 1.51855 cumulative IPC: 1.51783 (Simulation time: 0 hr 4 min 28 sec) 
Heartbeat CPU 0 instructions: 80000001 cycles: 52294489 heartbeat IPC: 1.51886 cumulative IPC: 1.51796 (Simulation time: 0 hr 5 min 6 sec) 
Heartbeat CPU 0 instructions: 90000002 cycles: 58875408 heartbeat IPC: 1.51954 cumulative IPC: 1.51814 (Simulation time: 0 hr 5 min 46 sec) 
Heartbeat CPU 0 instructions: 100000000 cycles: 65450026 heartbeat IPC: 1.521 cumulative IPC: 1.51843 (Simulation time: 0 hr 6 min 23 sec) 
Heartbeat CPU 0 instructions: 110000002 cycles: 72027444 heartbeat IPC: 1.52035 cumulative IPC: 1.51861 (Simulation time: 0 hr 7 min 3 sec) 
Heartbeat CPU 0 instructions: 120000003 cycles: 78606660 heartbeat IPC: 1.51994 cumulative IPC: 1.51872 (Simulation time: 0 hr 7 min 41 sec) 
Heartbeat CPU 0 instructions: 130000003 cycles: 85180222 heartbeat IPC: 1.52125 cumulative IPC: 1.51891 (Simulation time: 0 hr 8 min 18 sec) 
Heartbeat CPU 0 instructions: 140000000 cycles: 91758045 heartbeat IPC: 1.52026 cumulative IPC: 1.51901 (Simulation time: 0 hr 8 min 57 sec) 
Heartbeat CPU 0 instructions: 150000001 cycles: 98335863 heartbeat IPC: 1.52026 cumulative IPC: 1.51909 (Simulation time: 0 hr 9 min 36 sec) 
Heartbeat CPU 0 instructions: 160000003 cycles: 104912862 heartbeat IPC: 1.52045 cumulative IPC: 1.51918 (Simulation time: 0 hr 10 min 12 sec) 
Heartbeat CPU 0 instructions: 170000000 cycles: 111495609 heartbeat IPC: 1.51912 cumulative IPC: 1.51918 (Simulation time: 0 hr 10 min 50 sec) 
Heartbeat CPU 0 instructions: 180000000 cycles: 118079407 heartbeat IPC: 1.51888 cumulative IPC: 1.51916 (Simulation time: 0 hr 11 min 28 sec) 
Heartbeat CPU 0 instructions: 190000002 cycles: 124665202 heartbeat IPC: 1.51842 cumulative IPC: 1.51912 (Simulation time: 0 hr 12 min 4 sec) 
Heartbeat CPU 0 instructions: 200000000 cycles: 131254199 heartbeat IPC: 1.51768 cumulative IPC: 1.51905 (Simulation time: 0 hr 12 min 40 sec) 
Heartbeat CPU 0 instructions: 210000000 cycles: 137830368 heartbeat IPC: 1.52064 cumulative IPC: 1.51912 (Simulation time: 0 hr 13 min 15 sec) 
Heartbeat CPU 0 instructions: 220000000 cycles: 144430968 heartbeat IPC: 1.51501 cumulative IPC: 1.51894 (Simulation time: 0 hr 13 min 51 sec) 
Heartbeat CPU 0 instructions: 230000001 cycles: 151006997 heartbeat IPC: 1.52067 cumulative IPC: 1.51901 (Simulation time: 0 hr 14 min 25 sec) 
Heartbeat CPU 0 instructions: 240000000 cycles: 157603161 heartbeat IPC: 1.51603 cumulative IPC: 1.51889 (Simulation time: 0 hr 15 min 2 sec) 
Heartbeat CPU 0 instructions: 250000001 cycles: 164201756 heartbeat IPC: 1.51547 cumulative IPC: 1.51875 (Simulation time: 0 hr 15 min 38 sec) 
Heartbeat CPU 0 instructions: 260000000 cycles: 170788484 heartbeat IPC: 1.5182 cumulative IPC: 1.51873 (Simulation time: 0 hr 16 min 12 sec) 
Heartbeat CPU 0 instructions: 270000003 cycles: 177384924 heartbeat IPC: 1.51597 cumulative IPC: 1.51863 (Simulation time: 0 hr 16 min 48 sec) 
Heartbeat CPU 0 instructions: 280000000 cycles: 183971885 heartbeat IPC: 1.51815 cumulative IPC: 1.51861 (Simulation time: 0 hr 17 min 22 sec) 
Heartbeat CPU 0 instructions: 290000000 cycles: 190548203 heartbeat IPC: 1.52061 cumulative IPC: 1.51868 (Simulation time: 0 hr 17 min 56 sec) 
Heartbeat CPU 0 instructions: 300000002 cycles: 197132229 heartbeat IPC: 1.51883 cumulative IPC: 1.51868 (Simulation time: 0 hr 18 min 31 sec) 
Heartbeat CPU 0 instructions: 310000000 cycles: 203707865 heartbeat IPC: 1.52077 cumulative IPC: 1.51875 (Simulation time: 0 hr 19 min 3 sec) 
Heartbeat CPU 0 instructions: 320000003 cycles: 210281417 heartbeat IPC: 1.52125 cumulative IPC: 1.51883 (Simulation time: 0 hr 19 min 36 sec) 
Heartbeat CPU 0 instructions: 330000002 cycles: 216855719 heartbeat IPC: 1.52107 cumulative IPC: 1.5189 (Simulation time: 0 hr 20 min 9 sec) 
Heartbeat CPU 0 instructions: 340000000 cycles: 223433669 heartbeat IPC: 1.52023 cumulative IPC: 1.51894 (Simulation time: 0 hr 20 min 42 sec) 
Heartbeat CPU 0 instructions: 350000000 cycles: 230008056 heartbeat IPC: 1.52105 cumulative IPC: 1.519 (Simulation time: 0 hr 21 min 16 sec) 
Heartbeat CPU 0 instructions: 360000001 cycles: 236585713 heartbeat IPC: 1.5203 cumulative IPC: 1.51903 (Simulation time: 0 hr 21 min 48 sec) 
Heartbeat CPU 0 instructions: 370000000 cycles: 243165502 heartbeat IPC: 1.51981 cumulative IPC: 1.51905 (Simulation time: 0 hr 22 min 20 sec) 
Heartbeat CPU 0 instructions: 380000002 cycles: 249771369 heartbeat IPC: 1.51381 cumulative IPC: 1.51891 (Simulation time: 0 hr 22 min 58 sec) 
Heartbeat CPU 0 instructions: 390000004 cycles: 256357818 heartbeat IPC: 1.51827 cumulative IPC: 1.5189 (Simulation time: 0 hr 23 min 32 sec) 
Heartbeat CPU 0 instructions: 400000003 cycles: 262941610 heartbeat IPC: 1.51888 cumulative IPC: 1.5189 (Simulation time: 0 hr 24 min 3 sec) 
Heartbeat CPU 0 instructions: 410000001 cycles: 269522131 heartbeat IPC: 1.51964 cumulative IPC: 1.51892 (Simulation time: 0 hr 24 min 36 sec) 
Heartbeat CPU 0 instructions: 420000002 cycles: 276097534 heartbeat IPC: 1.52082 cumulative IPC: 1.51896 (Simulation time: 0 hr 25 min 7 sec) 
Heartbeat CPU 0 instructions: 430000004 cycles: 282707087 heartbeat IPC: 1.51296 cumulative IPC: 1.51882 (Simulation time: 0 hr 25 min 42 sec) 
Heartbeat CPU 0 instructions: 440000000 cycles: 289303686 heartbeat IPC: 1.51593 cumulative IPC: 1.51875 (Simulation time: 0 hr 26 min 16 sec) 
Heartbeat CPU 0 instructions: 450000002 cycles: 295985580 heartbeat IPC: 1.49658 cumulative IPC: 1.51825 (Simulation time: 0 hr 26 min 56 sec) 
Heartbeat CPU 0 instructions: 460000001 cycles: 302565536 heartbeat IPC: 1.51977 cumulative IPC: 1.51829 (Simulation time: 0 hr 27 min 27 sec) 
Heartbeat CPU 0 instructions: 470000003 cycles: 309148327 heartbeat IPC: 1.51911 cumulative IPC: 1.5183 (Simulation time: 0 hr 27 min 59 sec) 
Heartbeat CPU 0 instructions: 480000002 cycles: 315734132 heartbeat IPC: 1.51842 cumulative IPC: 1.51831 (Simulation time: 0 hr 28 min 31 sec) 
Heartbeat CPU 0 instructions: 490000000 cycles: 353249346 heartbeat IPC: 0.266558 cumulative IPC: 1.38528 (Simulation time: 0 hr 31 min 7 sec) 
Heartbeat CPU 0 instructions: 500000003 cycles: 359898791 heartbeat IPC: 1.50389 cumulative IPC: 1.38747 (Simulation time: 0 hr 32 min 2 sec) 
Heartbeat CPU 0 instructions: 510000000 cycles: 366574375 heartbeat IPC: 1.498 cumulative IPC: 1.38948 (Simulation time: 0 hr 32 min 58 sec) 
Heartbeat CPU 0 instructions: 520000000 cycles: 373181226 heartbeat IPC: 1.51358 cumulative IPC: 1.39168 (Simulation time: 0 hr 33 min 51 sec) 
Heartbeat CPU 0 instructions: 530000000 cycles: 379823321 heartbeat IPC: 1.50555 cumulative IPC: 1.39367 (Simulation time: 0 hr 34 min 44 sec) 
Heartbeat CPU 0 instructions: 540000000 cycles: 386468894 heartbeat IPC: 1.50476 cumulative IPC: 1.39559 (Simulation time: 0 hr 35 min 38 sec) 
Heartbeat CPU 0 instructions: 550000002 cycles: 393109637 heartbeat IPC: 1.50586 cumulative IPC: 1.39745 (Simulation time: 0 hr 36 min 34 sec) 
Heartbeat CPU 0 instructions: 560000000 cycles: 401720346 heartbeat IPC: 1.16134 cumulative IPC: 1.39239 (Simulation time: 0 hr 37 min 40 sec) 
Heartbeat CPU 0 instructions: 570000003 cycles: 428485365 heartbeat IPC: 0.373622 cumulative IPC: 1.32871 (Simulation time: 0 hr 39 min 51 sec) 
Heartbeat CPU 0 instructions: 580000001 cycles: 435133999 heartbeat IPC: 1.50407 cumulative IPC: 1.33139 (Simulation time: 0 hr 40 min 45 sec) 
Heartbeat CPU 0 instructions: 590000003 cycles: 441776455 heartbeat IPC: 1.50547 cumulative IPC: 1.33401 (Simulation time: 0 hr 41 min 38 sec) 
Heartbeat CPU 0 instructions: 600000000 cycles: 448391074 heartbeat IPC: 1.5118 cumulative IPC: 1.33664 (Simulation time: 0 hr 42 min 32 sec) 
Heartbeat CPU 0 instructions: 610000001 cycles: 455066050 heartbeat IPC: 1.49813 cumulative IPC: 1.33901 (Simulation time: 0 hr 43 min 25 sec) 
Heartbeat CPU 0 instructions: 620000003 cycles: 461681565 heartbeat IPC: 1.5116 cumulative IPC: 1.34148 (Simulation time: 0 hr 44 min 19 sec) 
Heartbeat CPU 0 instructions: 630000000 cycles: 468390002 heartbeat IPC: 1.49066 cumulative IPC: 1.34362 (Simulation time: 0 hr 45 min 13 sec) 
Heartbeat CPU 0 instructions: 640000000 cycles: 496019690 heartbeat IPC: 0.36193 cumulative IPC: 1.28891 (Simulation time: 0 hr 47 min 24 sec) 
Heartbeat CPU 0 instructions: 650000000 cycles: 502662118 heartbeat IPC: 1.50547 cumulative IPC: 1.29177 (Simulation time: 0 hr 48 min 15 sec) 
Heartbeat CPU 0 instructions: 660000004 cycles: 509342677 heartbeat IPC: 1.49688 cumulative IPC: 1.29446 (Simulation time: 0 hr 49 min 6 sec) 
Heartbeat CPU 0 instructions: 670000001 cycles: 515944114 heartbeat IPC: 1.51482 cumulative IPC: 1.29728 (Simulation time: 0 hr 49 min 53 sec) 
Heartbeat CPU 0 instructions: 680000003 cycles: 522600674 heartbeat IPC: 1.50228 cumulative IPC: 1.2999 (Simulation time: 0 hr 50 min 43 sec) 
Heartbeat CPU 0 instructions: 690000000 cycles: 529232874 heartbeat IPC: 1.50779 cumulative IPC: 1.3025 (Simulation time: 0 hr 51 min 33 sec) 
Heartbeat CPU 0 instructions: 700000001 cycles: 535881737 heartbeat IPC: 1.50402 cumulative IPC: 1.305 (Simulation time: 0 hr 52 min 23 sec) 
Heartbeat CPU 0 instructions: 710000002 cycles: 567344545 heartbeat IPC: 0.317836 cumulative IPC: 1.25023 (Simulation time: 0 hr 54 min 25 sec) 
Heartbeat CPU 0 instructions: 720000003 cycles: 581569941 heartbeat IPC: 0.702968 cumulative IPC: 1.23684 (Simulation time: 0 hr 55 min 33 sec) 
Heartbeat CPU 0 instructions: 730000003 cycles: 588227251 heartbeat IPC: 1.50211 cumulative IPC: 1.23985 (Simulation time: 0 hr 56 min 19 sec) 
Heartbeat CPU 0 instructions: 740000002 cycles: 594855090 heartbeat IPC: 1.50879 cumulative IPC: 1.24284 (Simulation time: 0 hr 57 min 6 sec) 
Heartbeat CPU 0 instructions: 750000004 cycles: 601477709 heartbeat IPC: 1.50998 cumulative IPC: 1.24579 (Simulation time: 0 hr 57 min 52 sec) 
Heartbeat CPU 0 instructions: 760000001 cycles: 608143301 heartbeat IPC: 1.50024 cumulative IPC: 1.24858 (Simulation time: 0 hr 58 min 38 sec) 
Heartbeat CPU 0 instructions: 770000000 cycles: 614761490 heartbeat IPC: 1.51099 cumulative IPC: 1.2514 (Simulation time: 0 hr 59 min 24 sec) 
Heartbeat CPU 0 instructions: 780000001 cycles: 621487545 heartbeat IPC: 1.48676 cumulative IPC: 1.25395 (Simulation time: 1 hr 0 min 10 sec) 
Heartbeat CPU 0 instructions: 790000004 cycles: 651039513 heartbeat IPC: 0.338387 cumulative IPC: 1.21238 (Simulation time: 1 hr 2 min 6 sec) 
Heartbeat CPU 0 instructions: 800000001 cycles: 657739729 heartbeat IPC: 1.49249 cumulative IPC: 1.21523 (Simulation time: 1 hr 2 min 52 sec) 
Heartbeat CPU 0 instructions: 810000001 cycles: 664470729 heartbeat IPC: 1.48566 cumulative IPC: 1.21797 (Simulation time: 1 hr 3 min 39 sec) 
Heartbeat CPU 0 instructions: 820000000 cycles: 671148191 heartbeat IPC: 1.49757 cumulative IPC: 1.22075 (Simulation time: 1 hr 4 min 26 sec) 
Heartbeat CPU 0 instructions: 830000002 cycles: 677871154 heartbeat IPC: 1.48744 cumulative IPC: 1.2234 (Simulation time: 1 hr 5 min 10 sec) 
Heartbeat CPU 0 instructions: 840000004 cycles: 684560296 heartbeat IPC: 1.49496 cumulative IPC: 1.22605 (Simulation time: 1 hr 5 min 56 sec) 
Heartbeat CPU 0 instructions: 850000003 cycles: 691270225 heartbeat IPC: 1.49033 cumulative IPC: 1.22862 (Simulation time: 1 hr 6 min 41 sec) 
Heartbeat CPU 0 instructions: 860000000 cycles: 719795556 heartbeat IPC: 0.350565 cumulative IPC: 1.19381 (Simulation time: 1 hr 8 min 28 sec) 
Heartbeat CPU 0 instructions: 870000002 cycles: 726429101 heartbeat IPC: 1.50749 cumulative IPC: 1.19668 (Simulation time: 1 hr 9 min 12 sec) 
Heartbeat CPU 0 instructions: 880000001 cycles: 733090714 heartbeat IPC: 1.50114 cumulative IPC: 1.19944 (Simulation time: 1 hr 9 min 55 sec) 
Heartbeat CPU 0 instructions: 890000004 cycles: 739705397 heartbeat IPC: 1.51179 cumulative IPC: 1.20224 (Simulation time: 1 hr 10 min 39 sec) 
Heartbeat CPU 0 instructions: 900000003 cycles: 746340178 heartbeat IPC: 1.50721 cumulative IPC: 1.20495 (Simulation time: 1 hr 11 min 22 sec) 
Heartbeat CPU 0 instructions: 910000000 cycles: 753017563 heartbeat IPC: 1.49759 cumulative IPC: 1.20755 (Simulation time: 1 hr 12 min 6 sec) 
Heartbeat CPU 0 instructions: 920000000 cycles: 759703727 heartbeat IPC: 1.49563 cumulative IPC: 1.21008 (Simulation time: 1 hr 12 min 50 sec) 
Heartbeat CPU 0 instructions: 930000001 cycles: 766435413 heartbeat IPC: 1.48551 cumulative IPC: 1.2125 (Simulation time: 1 hr 13 min 33 sec) 
Heartbeat CPU 0 instructions: 940000000 cycles: 793407398 heartbeat IPC: 0.370755 cumulative IPC: 1.18388 (Simulation time: 1 hr 15 min 16 sec) 
Heartbeat CPU 0 instructions: 950000000 cycles: 800103403 heartbeat IPC: 1.49343 cumulative IPC: 1.18647 (Simulation time: 1 hr 15 min 59 sec) 
Heartbeat CPU 0 instructions: 960000000 cycles: 806804967 heartbeat IPC: 1.49219 cumulative IPC: 1.18901 (Simulation time: 1 hr 16 min 43 sec) 
Heartbeat CPU 0 instructions: 970000002 cycles: 813447763 heartbeat IPC: 1.50539 cumulative IPC: 1.19159 (Simulation time: 1 hr 17 min 26 sec) 
Heartbeat CPU 0 instructions: 980000001 cycles: 820138301 heartbeat IPC: 1.49465 cumulative IPC: 1.19407 (Simulation time: 1 hr 18 min 10 sec) 
Heartbeat CPU 0 instructions: 990000003 cycles: 826766477 heartbeat IPC: 1.50871 cumulative IPC: 1.19659 (Simulation time: 1 hr 18 min 53 sec) 
Heartbeat CPU 0 instructions: 1000000004 cycles: 833463842 heartbeat IPC: 1.49312 cumulative IPC: 1.19897 (Simulation time: 1 hr 19 min 37 sec) 
Finished CPU 0 instructions: 1000000002 cycles: 833886182 cumulative IPC: 1.1992 (Simulation time: 1 hr 19 min 41 sec) 

ChampSim completed all CPUs

Region of Interest Statistics

CPU 0 cumulative IPC: 1.1992 instructions: 1000000002 cycles: 833886182
cpu0_DTLB TOTAL     ACCESS:  165738416  HIT:  165698493  MISS:      39923
cpu0_DTLB LOAD      ACCESS:  117305804  HIT:  117277276  MISS:      28528
cpu0_DTLB RFO       ACCESS:   48432612  HIT:   48421217  MISS:      11395
cpu0_DTLB PREFETCH  ACCESS:          0  HIT:          0  MISS:          0
cpu0_DTLB WRITEBACK ACCESS:          0  HIT:          0  MISS:          0
cpu0_DTLB TRANSLATION ACCESS:          0  HIT:          0  MISS:          0
cpu0_DTLB PREFETCH  REQUESTED:          0  ISSUED:          0  USEFUL:          0  USELESS:          0
cpu0_DTLB AVERAGE MISS LATENCY: 87.4417 cycles
cpu0_ITLB TOTAL     ACCESS:   74543471  HIT:   74543464  MISS:          7
cpu0_ITLB LOAD      ACCESS:   74543471  HIT:   74543464  MISS:          7
cpu0_ITLB RFO       ACCESS:          0  HIT:          0  MISS:          0
cpu0_ITLB PREFETCH  ACCESS:          0  HIT:          0  MISS:          0
cpu0_ITLB WRITEBACK ACCESS:          0  HIT:          0  MISS:          0
cpu0_ITLB TRANSLATION ACCESS:          0  HIT:          0  MISS:          0
cpu0_ITLB PREFETCH  REQUESTED:          0  ISSUED:          0  USEFUL:          0  USELESS:          0
cpu0_ITLB AVERAGE MISS LATENCY: 313.429 cycles
cpu0_L1I TOTAL     ACCESS:   55360511  HIT:   55360440  MISS:         71
cpu0_L1I LOAD      ACCESS:   55360511  HIT:   55360440  MISS:         71
cpu0_L1I RFO       ACCESS:          0  HIT:          0  MISS:          0
cpu0_L1I PREFETCH  ACCESS:          0  HIT:          0  MISS:          0
cpu0_L1I WRITEBACK ACCESS:          0  HIT:          0  MISS:          0
cpu0_L1I TRANSLATION ACCESS:          0  HIT:          0  MISS:          0
cpu0_L1I PREFETCH  REQUESTED:          0  ISSUED:          0  USEFUL:          0  USELESS:          0
cpu0_L1I AVERAGE MISS LATENCY: 470.648 cycles
cpu0_STLB TOTAL     ACCESS:      39930  HIT:       3406  MISS:      36524
cpu0_STLB LOAD      ACCESS:      28535  HIT:       3350  MISS:      25185
cpu0_STLB RFO       ACCESS:      11395  HIT:         56  MISS:      11339
cpu0_STLB PREFETCH  ACCESS:          0  HIT:          0  MISS:          0
cpu0_STLB WRITEBACK ACCESS:          0  HIT:          0  MISS:          0
cpu0_STLB TRANSLATION ACCESS:          0  HIT:          0  MISS:          0
cpu0_STLB PREFETCH  REQUESTED:          0  ISSUED:          0  USEFUL:          0  USELESS:          0
cpu0_STLB AVERAGE MISS LATENCY: 85.799 cycles
cpu0_L1D TOTAL     ACCESS:  322641069  HIT:  320770483  MISS:    1870586
cpu0_L1D LOAD      ACCESS:  120159457  HIT:  119495233  MISS:     664224
cpu0_L1D RFO       ACCESS:   85252860  HIT:   84524751  MISS:     728109
cpu0_L1D PREFETCH  ACCESS:  117192298  HIT:  116714459  MISS:     477839
cpu0_L1D WRITEBACK ACCESS:          0  HIT:          0  MISS:          0
cpu0_L1D TRANSLATION ACCESS:      36454  HIT:      36040  MISS:        414
cpu0_L1D PREFETCH  REQUESTED:  121142822  ISSUED:  120736960  USEFUL:    1054447  USELESS:      22952
cpu0_L1D AVERAGE MISS LATENCY: 394.536 cycles
cpu0_L2C TOTAL     ACCESS:    4126125  HIT:    2220368  MISS:    1905757
cpu0_L2C LOAD      ACCESS:      64740  HIT:       9466  MISS:      55274
cpu0_L2C RFO       ACCESS:     727619  HIT:       3609  MISS:     724010
cpu0_L2C PREFETCH  ACCESS:    2596337  HIT:    1471671  MISS:    1124666
cpu0_L2C WRITEBACK ACCESS:     737015  HIT:     735358  MISS:       1657
cpu0_L2C TRANSLATION ACCESS:        414  HIT:        264  MISS:        150
cpu0_L2C PREFETCH  REQUESTED:    1572380  ISSUED:    1572056  USEFUL:      39890  USELESS:      22264
cpu0_L2C AVERAGE MISS LATENCY: 708.697 cycles
LLC TOTAL     ACCESS:    2630552  HIT:     422611  MISS:    2207941
LLC LOAD      ACCESS:      55274  HIT:      13456  MISS:      41818
LLC RFO       ACCESS:     724010  HIT:       5955  MISS:     718055
LLC PREFETCH  ACCESS:    1127972  HIT:     128783  MISS:     999189
LLC WRITEBACK ACCESS:     723146  HIT:     274382  MISS:     448764
LLC TRANSLATION ACCESS:        150  HIT:         35  MISS:        115
LLC PREFETCH  REQUESTED:          0  ISSUED:          0  USEFUL:          0  USELESS:          0
LLC AVERAGE MISS LATENCY: 590.483 cycles
OPTgen accesses: 12471
OPTgen hits: 3530
OPTgen hit rate: 28.3057



DRAM Statistics
 CHANNEL 0
 RQ ROW_BUFFER_HIT:     117436  ROW_BUFFER_MISS:    1641670
 DBUS AVG_CONGESTED_CYCLE:    3.97931
 WQ ROW_BUFFER_HIT:      43097  ROW_BUFFER_MISS:     654618  FULL:       7202


CPU 0 Branch Prediction Accuracy: 90.4292% MPKI: 12.6732 Average ROB Occupancy at Mispredict: 30.8826
Branch type MPKI
BRANCH_DIRECT_JUMP: 8e-06
BRANCH_INDIRECT: 0
BRANCH_CONDITIONAL: 12.6732
BRANCH_DIRECT_CALL: 8e-06
BRANCH_INDIRECT_CALL: 0
BRANCH_RETURN: 9e-06

