
*** ChampSim Multicore Out-of-Order Simulator ***

Warmup Instructions: 1000000
Simulation Instructions: 1000000000
Number of CPUs: 1
Off-chip DRAM Size: 4 GiB Channels: 1 Width: 64-bit Data Rate: 3200 MT/s

VirtualMemory physical capacity: 8588881920 num_ppages: 2096895
VirtualMemory page size: 4096 log2_page_size: 12

CPU 0 runs tracer/pin/traces/spec2k17/627.cam4_s-573B.champsimtrace.xz
Basic BTB sets: 1024 ways: 8 indirect buffer size: 4096 RAS size: 64
cpu0_L1D next line prefetcher
cpu0_L2C IP-based stride prefetcher
Initialize Hawkeye state
WARNING: The extended signature CACHE::prefetch_line(ip, base_addr, pf_addr, fill_this_level, prefetch_metadata) is deprecated.
WARNING: Use CACHE::prefetch_line(pf_addr, fill_this_level, prefetch_metadata) instead.

Warmup complete CPU 0 instructions: 1000002 cycles: 278158 (Simulation time: 0 hr 0 min 2 sec) 

Heartbeat CPU 0 instructions: 10000002 cycles: 14298726 heartbeat IPC: 0.699363 cumulative IPC: 0.641914 (Simulation time: 0 hr 1 min 12 sec) 
Heartbeat CPU 0 instructions: 20000000 cycles: 19709608 heartbeat IPC: 1.84813 cumulative IPC: 0.977796 (Simulation time: 0 hr 1 min 57 sec) 
Heartbeat CPU 0 instructions: 30000003 cycles: 24946794 heartbeat IPC: 1.90942 cumulative IPC: 1.17558 (Simulation time: 0 hr 2 min 42 sec) 
Heartbeat CPU 0 instructions: 40000002 cycles: 30037489 heartbeat IPC: 1.96437 cumulative IPC: 1.31051 (Simulation time: 0 hr 3 min 23 sec) 
Heartbeat CPU 0 instructions: 50000001 cycles: 35433696 heartbeat IPC: 1.85315 cumulative IPC: 1.39381 (Simulation time: 0 hr 4 min 4 sec) 
Heartbeat CPU 0 instructions: 60000002 cycles: 40822834 heartbeat IPC: 1.85558 cumulative IPC: 1.45518 (Simulation time: 0 hr 4 min 43 sec) 
Heartbeat CPU 0 instructions: 70000003 cycles: 46197346 heartbeat IPC: 1.86063 cumulative IPC: 1.50264 (Simulation time: 0 hr 5 min 23 sec) 
Heartbeat CPU 0 instructions: 80000004 cycles: 53230771 heartbeat IPC: 1.42178 cumulative IPC: 1.4919 (Simulation time: 0 hr 6 min 8 sec) 
Heartbeat CPU 0 instructions: 90000004 cycles: 61101374 heartbeat IPC: 1.27055 cumulative IPC: 1.46326 (Simulation time: 0 hr 6 min 52 sec) 
Heartbeat CPU 0 instructions: 100000000 cycles: 75213211 heartbeat IPC: 0.708625 cumulative IPC: 1.32114 (Simulation time: 0 hr 8 min 10 sec) 
Heartbeat CPU 0 instructions: 110000002 cycles: 121607269 heartbeat IPC: 0.215545 cumulative IPC: 0.898383 (Simulation time: 0 hr 12 min 51 sec) 
Heartbeat CPU 0 instructions: 120000004 cycles: 127627605 heartbeat IPC: 1.66104 cumulative IPC: 0.934437 (Simulation time: 0 hr 13 min 44 sec) 
Heartbeat CPU 0 instructions: 130000004 cycles: 132771521 heartbeat IPC: 1.94404 cumulative IPC: 0.973634 (Simulation time: 0 hr 14 min 34 sec) 
Heartbeat CPU 0 instructions: 140000001 cycles: 137934551 heartbeat IPC: 1.93685 cumulative IPC: 1.00976 (Simulation time: 0 hr 15 min 24 sec) 
Heartbeat CPU 0 instructions: 150000004 cycles: 143555914 heartbeat IPC: 1.77893 cumulative IPC: 1.03994 (Simulation time: 0 hr 16 min 9 sec) 
Heartbeat CPU 0 instructions: 160000004 cycles: 149058178 heartbeat IPC: 1.81743 cumulative IPC: 1.06869 (Simulation time: 0 hr 16 min 53 sec) 
Heartbeat CPU 0 instructions: 170000000 cycles: 154602961 heartbeat IPC: 1.8035 cumulative IPC: 1.09509 (Simulation time: 0 hr 17 min 38 sec) 
Heartbeat CPU 0 instructions: 180000003 cycles: 161578917 heartbeat IPC: 1.4335 cumulative IPC: 1.10973 (Simulation time: 0 hr 18 min 26 sec) 
Heartbeat CPU 0 instructions: 190000000 cycles: 169171204 heartbeat IPC: 1.31713 cumulative IPC: 1.11905 (Simulation time: 0 hr 19 min 17 sec) 
Heartbeat CPU 0 instructions: 200000000 cycles: 180240085 heartbeat IPC: 0.903434 cumulative IPC: 1.10579 (Simulation time: 0 hr 20 min 21 sec) 
Heartbeat CPU 0 instructions: 210000004 cycles: 231051431 heartbeat IPC: 0.196807 cumulative IPC: 0.905651 (Simulation time: 0 hr 25 min 35 sec) 
Heartbeat CPU 0 instructions: 220000003 cycles: 237504907 heartbeat IPC: 1.54955 cumulative IPC: 0.923167 (Simulation time: 0 hr 26 min 28 sec) 
Heartbeat CPU 0 instructions: 230000002 cycles: 242724678 heartbeat IPC: 1.91579 cumulative IPC: 0.944538 (Simulation time: 0 hr 27 min 18 sec) 
Heartbeat CPU 0 instructions: 240000001 cycles: 247885300 heartbeat IPC: 1.93775 cumulative IPC: 0.965239 (Simulation time: 0 hr 28 min 7 sec) 
Heartbeat CPU 0 instructions: 250000001 cycles: 253361647 heartbeat IPC: 1.82603 cumulative IPC: 0.983865 (Simulation time: 0 hr 28 min 54 sec) 
Heartbeat CPU 0 instructions: 260000000 cycles: 258699458 heartbeat IPC: 1.87343 cumulative IPC: 1.00224 (Simulation time: 0 hr 29 min 39 sec) 
Heartbeat CPU 0 instructions: 270000002 cycles: 264038510 heartbeat IPC: 1.87299 cumulative IPC: 1.01987 (Simulation time: 0 hr 30 min 24 sec) 
Heartbeat CPU 0 instructions: 280000002 cycles: 269988871 heartbeat IPC: 1.68057 cumulative IPC: 1.03444 (Simulation time: 0 hr 31 min 13 sec) 
Heartbeat CPU 0 instructions: 290000002 cycles: 277722364 heartbeat IPC: 1.29308 cumulative IPC: 1.04165 (Simulation time: 0 hr 32 min 4 sec) 
Heartbeat CPU 0 instructions: 300000002 cycles: 287452637 heartbeat IPC: 1.02772 cumulative IPC: 1.04118 (Simulation time: 0 hr 32 min 57 sec) 
Heartbeat CPU 0 instructions: 310000001 cycles: 340264986 heartbeat IPC: 0.18935 cumulative IPC: 0.908859 (Simulation time: 0 hr 38 min 30 sec) 
Heartbeat CPU 0 instructions: 320000001 cycles: 347558541 heartbeat IPC: 1.37107 cumulative IPC: 0.918566 (Simulation time: 0 hr 39 min 22 sec) 
Heartbeat CPU 0 instructions: 330000003 cycles: 352820993 heartbeat IPC: 1.90026 cumulative IPC: 0.93322 (Simulation time: 0 hr 40 min 13 sec) 
Heartbeat CPU 0 instructions: 340000000 cycles: 357933977 heartbeat IPC: 1.9558 cumulative IPC: 0.947839 (Simulation time: 0 hr 41 min 2 sec) 
Heartbeat CPU 0 instructions: 350000000 cycles: 363331021 heartbeat IPC: 1.85287 cumulative IPC: 0.961293 (Simulation time: 0 hr 41 min 50 sec) 
Heartbeat CPU 0 instructions: 360000004 cycles: 368655977 heartbeat IPC: 1.87795 cumulative IPC: 0.974543 (Simulation time: 0 hr 42 min 34 sec) 
Heartbeat CPU 0 instructions: 370000001 cycles: 373941779 heartbeat IPC: 1.89186 cumulative IPC: 0.987519 (Simulation time: 0 hr 43 min 18 sec) 
Heartbeat CPU 0 instructions: 380000003 cycles: 379246096 heartbeat IPC: 1.88526 cumulative IPC: 1.00008 (Simulation time: 0 hr 44 min 3 sec) 
Heartbeat CPU 0 instructions: 390000001 cycles: 386432348 heartbeat IPC: 1.39155 cumulative IPC: 1.00737 (Simulation time: 0 hr 44 min 55 sec) 
Heartbeat CPU 0 instructions: 400000001 cycles: 394327570 heartbeat IPC: 1.26659 cumulative IPC: 1.01256 (Simulation time: 0 hr 45 min 44 sec) 
Heartbeat CPU 0 instructions: 410000001 cycles: 413393538 heartbeat IPC: 0.524495 cumulative IPC: 0.990038 (Simulation time: 0 hr 47 min 43 sec) 
Heartbeat CPU 0 instructions: 420000000 cycles: 456623259 heartbeat IPC: 0.231322 cumulative IPC: 0.918165 (Simulation time: 0 hr 52 min 11 sec) 
Heartbeat CPU 0 instructions: 430000001 cycles: 462373717 heartbeat IPC: 1.73899 cumulative IPC: 0.928379 (Simulation time: 0 hr 53 min 4 sec) 
Heartbeat CPU 0 instructions: 440000001 cycles: 467584291 heartbeat IPC: 1.91917 cumulative IPC: 0.939427 (Simulation time: 0 hr 53 min 55 sec) 
Heartbeat CPU 0 instructions: 450000003 cycles: 472901672 heartbeat IPC: 1.88063 cumulative IPC: 0.950016 (Simulation time: 0 hr 54 min 46 sec) 
Heartbeat CPU 0 instructions: 460000000 cycles: 478244953 heartbeat IPC: 1.87151 cumulative IPC: 0.960318 (Simulation time: 0 hr 55 min 33 sec) 
Heartbeat CPU 0 instructions: 470000000 cycles: 483537938 heartbeat IPC: 1.88929 cumulative IPC: 0.970493 (Simulation time: 0 hr 56 min 17 sec) 
Heartbeat CPU 0 instructions: 480000002 cycles: 488848004 heartbeat IPC: 1.88322 cumulative IPC: 0.980413 (Simulation time: 0 hr 57 min 2 sec) 
Heartbeat CPU 0 instructions: 490000000 cycles: 495912124 heartbeat IPC: 1.4156 cumulative IPC: 0.986615 (Simulation time: 0 hr 57 min 53 sec) 
Heartbeat CPU 0 instructions: 500000001 cycles: 503768436 heartbeat IPC: 1.27286 cumulative IPC: 0.991082 (Simulation time: 0 hr 58 min 43 sec) 
Heartbeat CPU 0 instructions: 510000001 cycles: 516735028 heartbeat IPC: 0.771213 cumulative IPC: 0.985561 (Simulation time: 1 hr 0 min 1 sec) 
Heartbeat CPU 0 instructions: 520000004 cycles: 565975178 heartbeat IPC: 0.203086 cumulative IPC: 0.917452 (Simulation time: 1 hr 5 min 12 sec) 
Heartbeat CPU 0 instructions: 530000001 cycles: 571753304 heartbeat IPC: 1.73066 cumulative IPC: 0.925675 (Simulation time: 1 hr 6 min 5 sec) 
Heartbeat CPU 0 instructions: 540000002 cycles: 576994376 heartbeat IPC: 1.90801 cumulative IPC: 0.934602 (Simulation time: 1 hr 6 min 57 sec) 
Heartbeat CPU 0 instructions: 550000002 cycles: 582305627 heartbeat IPC: 1.8828 cumulative IPC: 0.943254 (Simulation time: 1 hr 7 min 48 sec) 
Heartbeat CPU 0 instructions: 560000000 cycles: 587577458 heartbeat IPC: 1.89687 cumulative IPC: 0.951815 (Simulation time: 1 hr 8 min 34 sec) 
Heartbeat CPU 0 instructions: 570000000 cycles: 592771840 heartbeat IPC: 1.92516 cumulative IPC: 0.960348 (Simulation time: 1 hr 9 min 19 sec) 
Heartbeat CPU 0 instructions: 580000000 cycles: 598061873 heartbeat IPC: 1.89035 cumulative IPC: 0.968578 (Simulation time: 1 hr 10 min 4 sec) 
Heartbeat CPU 0 instructions: 590000000 cycles: 605026360 heartbeat IPC: 1.43586 cumulative IPC: 0.973959 (Simulation time: 1 hr 10 min 54 sec) 
Heartbeat CPU 0 instructions: 600000001 cycles: 613037741 heartbeat IPC: 1.24822 cumulative IPC: 0.977545 (Simulation time: 1 hr 11 min 45 sec) 
Heartbeat CPU 0 instructions: 610000004 cycles: 625603535 heartbeat IPC: 0.795811 cumulative IPC: 0.973893 (Simulation time: 1 hr 13 min 2 sec) 
Heartbeat CPU 0 instructions: 620000002 cycles: 675215819 heartbeat IPC: 0.201563 cumulative IPC: 0.917122 (Simulation time: 1 hr 18 min 7 sec) 
Heartbeat CPU 0 instructions: 630000003 cycles: 681113194 heartbeat IPC: 1.69567 cumulative IPC: 0.923865 (Simulation time: 1 hr 18 min 57 sec) 
Heartbeat CPU 0 instructions: 640000001 cycles: 686326445 heartbeat IPC: 1.91819 cumulative IPC: 0.931421 (Simulation time: 1 hr 19 min 46 sec) 
Heartbeat CPU 0 instructions: 650000000 cycles: 691613395 heartbeat IPC: 1.89145 cumulative IPC: 0.938763 (Simulation time: 1 hr 20 min 33 sec) 
Heartbeat CPU 0 instructions: 660000002 cycles: 696813593 heartbeat IPC: 1.923 cumulative IPC: 0.946111 (Simulation time: 1 hr 21 min 14 sec) 
Heartbeat CPU 0 instructions: 670000002 cycles: 702139242 heartbeat IPC: 1.87771 cumulative IPC: 0.95318 (Simulation time: 1 hr 21 min 55 sec) 
Heartbeat CPU 0 instructions: 680000003 cycles: 708581694 heartbeat IPC: 1.5522 cumulative IPC: 0.958629 (Simulation time: 1 hr 22 min 42 sec) 
Heartbeat CPU 0 instructions: 690000002 cycles: 716298530 heartbeat IPC: 1.29587 cumulative IPC: 0.962263 (Simulation time: 1 hr 23 min 29 sec) 
Heartbeat CPU 0 instructions: 700000004 cycles: 728196604 heartbeat IPC: 0.840472 cumulative IPC: 0.960272 (Simulation time: 1 hr 24 min 34 sec) 
Heartbeat CPU 0 instructions: 710000001 cycles: 778822854 heartbeat IPC: 0.197526 cumulative IPC: 0.910673 (Simulation time: 1 hr 29 min 25 sec) 
Heartbeat CPU 0 instructions: 720000004 cycles: 785047041 heartbeat IPC: 1.60664 cumulative IPC: 0.916193 (Simulation time: 1 hr 30 min 12 sec) 
Heartbeat CPU 0 instructions: 730000001 cycles: 790423720 heartbeat IPC: 1.85988 cumulative IPC: 0.922615 (Simulation time: 1 hr 31 min 0 sec) 
Heartbeat CPU 0 instructions: 740000002 cycles: 795745709 heartbeat IPC: 1.879 cumulative IPC: 0.929013 (Simulation time: 1 hr 31 min 42 sec) 
Heartbeat CPU 0 instructions: 750000004 cycles: 800969920 heartbeat IPC: 1.91417 cumulative IPC: 0.935441 (Simulation time: 1 hr 32 min 22 sec) 
Heartbeat CPU 0 instructions: 760000000 cycles: 806170993 heartbeat IPC: 1.92268 cumulative IPC: 0.941813 (Simulation time: 1 hr 33 min 1 sec) 
Heartbeat CPU 0 instructions: 770000004 cycles: 812693890 heartbeat IPC: 1.53306 cumulative IPC: 0.94656 (Simulation time: 1 hr 33 min 45 sec) 
Heartbeat CPU 0 instructions: 780000003 cycles: 820237948 heartbeat IPC: 1.32555 cumulative IPC: 0.950047 (Simulation time: 1 hr 34 min 30 sec) 
Heartbeat CPU 0 instructions: 790000004 cycles: 830672715 heartbeat IPC: 0.958335 cumulative IPC: 0.950151 (Simulation time: 1 hr 35 min 21 sec) 
Heartbeat CPU 0 instructions: 800000000 cycles: 882885870 heartbeat IPC: 0.191523 cumulative IPC: 0.905272 (Simulation time: 1 hr 39 min 29 sec) 
Heartbeat CPU 0 instructions: 810000000 cycles: 889199817 heartbeat IPC: 1.5838 cumulative IPC: 0.910091 (Simulation time: 1 hr 40 min 15 sec) 
Heartbeat CPU 0 instructions: 820000002 cycles: 894463572 heartbeat IPC: 1.89978 cumulative IPC: 0.915917 (Simulation time: 1 hr 40 min 59 sec) 
Heartbeat CPU 0 instructions: 830000002 cycles: 899920049 heartbeat IPC: 1.83268 cumulative IPC: 0.921478 (Simulation time: 1 hr 41 min 38 sec) 
Heartbeat CPU 0 instructions: 840000003 cycles: 905093874 heartbeat IPC: 1.93281 cumulative IPC: 0.927261 (Simulation time: 1 hr 42 min 15 sec) 
Heartbeat CPU 0 instructions: 850000002 cycles: 910279138 heartbeat IPC: 1.92854 cumulative IPC: 0.932966 (Simulation time: 1 hr 42 min 50 sec) 
Heartbeat CPU 0 instructions: 860000003 cycles: 916234811 heartbeat IPC: 1.67907 cumulative IPC: 0.937817 (Simulation time: 1 hr 43 min 26 sec) 
Heartbeat CPU 0 instructions: 870000001 cycles: 924066765 heartbeat IPC: 1.27682 cumulative IPC: 0.940691 (Simulation time: 1 hr 44 min 6 sec) 
Heartbeat CPU 0 instructions: 880000003 cycles: 934541686 heartbeat IPC: 0.954661 cumulative IPC: 0.940848 (Simulation time: 1 hr 44 min 53 sec) 
Heartbeat CPU 0 instructions: 890000000 cycles: 986735105 heartbeat IPC: 0.191595 cumulative IPC: 0.901205 (Simulation time: 1 hr 48 min 33 sec) 
Heartbeat CPU 0 instructions: 900000001 cycles: 993252720 heartbeat IPC: 1.5343 cumulative IPC: 0.905361 (Simulation time: 1 hr 49 min 13 sec) 
Heartbeat CPU 0 instructions: 910000000 cycles: 998460732 heartbeat IPC: 1.92012 cumulative IPC: 0.910655 (Simulation time: 1 hr 49 min 57 sec) 
Heartbeat CPU 0 instructions: 920000002 cycles: 1003632471 heartbeat IPC: 1.93359 cumulative IPC: 0.915928 (Simulation time: 1 hr 50 min 40 sec) 
Heartbeat CPU 0 instructions: 930000000 cycles: 1009096566 heartbeat IPC: 1.83013 cumulative IPC: 0.920879 (Simulation time: 1 hr 51 min 19 sec) 
Heartbeat CPU 0 instructions: 940000000 cycles: 1014404004 heartbeat IPC: 1.88415 cumulative IPC: 0.925921 (Simulation time: 1 hr 51 min 54 sec) 
Heartbeat CPU 0 instructions: 950000001 cycles: 1019803563 heartbeat IPC: 1.852 cumulative IPC: 0.930825 (Simulation time: 1 hr 52 min 31 sec) 
Heartbeat CPU 0 instructions: 960000001 cycles: 1026725409 heartbeat IPC: 1.4447 cumulative IPC: 0.934291 (Simulation time: 1 hr 53 min 10 sec) 
Heartbeat CPU 0 instructions: 970000000 cycles: 1034462233 heartbeat IPC: 1.29252 cumulative IPC: 0.936971 (Simulation time: 1 hr 53 min 55 sec) 
Heartbeat CPU 0 instructions: 980000003 cycles: 1045965655 heartbeat IPC: 0.869307 cumulative IPC: 0.936226 (Simulation time: 1 hr 54 min 48 sec) 
Heartbeat CPU 0 instructions: 990000002 cycles: 1096723196 heartbeat IPC: 0.197015 cumulative IPC: 0.902006 (Simulation time: 1 hr 58 min 57 sec) 
Heartbeat CPU 0 instructions: 1000000001 cycles: 1102692885 heartbeat IPC: 1.67513 cumulative IPC: 0.906193 (Simulation time: 1 hr 59 min 43 sec) 
Finished CPU 0 instructions: 1000000003 cycles: 1102973113 cumulative IPC: 0.90664 (Simulation time: 1 hr 59 min 47 sec) 

ChampSim completed all CPUs

Region of Interest Statistics

CPU 0 cumulative IPC: 0.90664 instructions: 1000000003 cycles: 1102973113
cpu0_DTLB TOTAL     ACCESS:  160643551  HIT:  159997421  MISS:     646130
cpu0_DTLB LOAD      ACCESS:  107616837  HIT:  107129388  MISS:     487449
cpu0_DTLB RFO       ACCESS:   53026714  HIT:   52868033  MISS:     158681
cpu0_DTLB PREFETCH  ACCESS:          0  HIT:          0  MISS:          0
cpu0_DTLB WRITEBACK ACCESS:          0  HIT:          0  MISS:          0
cpu0_DTLB TRANSLATION ACCESS:          0  HIT:          0  MISS:          0
cpu0_DTLB PREFETCH  REQUESTED:          0  ISSUED:          0  USEFUL:          0  USELESS:          0
cpu0_DTLB AVERAGE MISS LATENCY: 14.9796 cycles
cpu0_ITLB TOTAL     ACCESS:   65771437  HIT:   65759222  MISS:      12215
cpu0_ITLB LOAD      ACCESS:   65771437  HIT:   65759222  MISS:      12215
cpu0_ITLB RFO       ACCESS:          0  HIT:          0  MISS:          0
cpu0_ITLB PREFETCH  ACCESS:          0  HIT:          0  MISS:          0
cpu0_ITLB WRITEBACK ACCESS:          0  HIT:          0  MISS:          0
cpu0_ITLB TRANSLATION ACCESS:          0  HIT:          0  MISS:          0
cpu0_ITLB PREFETCH  REQUESTED:          0  ISSUED:          0  USEFUL:          0  USELESS:          0
cpu0_ITLB AVERAGE MISS LATENCY: 18.5311 cycles
cpu0_L1I TOTAL     ACCESS:   61421974  HIT:   61017967  MISS:     404007
cpu0_L1I LOAD      ACCESS:   61421974  HIT:   61017967  MISS:     404007
cpu0_L1I RFO       ACCESS:          0  HIT:          0  MISS:          0
cpu0_L1I PREFETCH  ACCESS:          0  HIT:          0  MISS:          0
cpu0_L1I WRITEBACK ACCESS:          0  HIT:          0  MISS:          0
cpu0_L1I TRANSLATION ACCESS:          0  HIT:          0  MISS:          0
cpu0_L1I PREFETCH  REQUESTED:          0  ISSUED:          0  USEFUL:          0  USELESS:          0
cpu0_L1I AVERAGE MISS LATENCY: 141.058 cycles
cpu0_STLB TOTAL     ACCESS:     658345  HIT:     559765  MISS:      98580
cpu0_STLB LOAD      ACCESS:     499664  HIT:     479040  MISS:      20624
cpu0_STLB RFO       ACCESS:     158681  HIT:      80725  MISS:      77956
cpu0_STLB PREFETCH  ACCESS:          0  HIT:          0  MISS:          0
cpu0_STLB WRITEBACK ACCESS:          0  HIT:          0  MISS:          0
cpu0_STLB TRANSLATION ACCESS:          0  HIT:          0  MISS:          0
cpu0_STLB PREFETCH  REQUESTED:          0  ISSUED:          0  USEFUL:          0  USELESS:          0
cpu0_STLB AVERAGE MISS LATENCY: 39.8938 cycles
cpu0_L1D TOTAL     ACCESS:  301645461  HIT:  289823464  MISS:   11821997
cpu0_L1D LOAD      ACCESS:  111024015  HIT:  108503882  MISS:    2520133
cpu0_L1D RFO       ACCESS:   82510711  HIT:   76029740  MISS:    6480971
cpu0_L1D PREFETCH  ACCESS:  108014809  HIT:  105198693  MISS:    2816116
cpu0_L1D WRITEBACK ACCESS:          0  HIT:          0  MISS:          0
cpu0_L1D TRANSLATION ACCESS:      95926  HIT:      91149  MISS:       4777
cpu0_L1D PREFETCH  REQUESTED:  111740681  ISSUED:  110385601  USEFUL:    2572169  USELESS:     796267
cpu0_L1D AVERAGE MISS LATENCY: 365.691 cycles
cpu0_L2C TOTAL     ACCESS:   21039399  HIT:   14406936  MISS:    6632463
cpu0_L2C LOAD      ACCESS:    2376112  HIT:    1783337  MISS:     592775
cpu0_L2C RFO       ACCESS:    6475395  HIT:    1296320  MISS:    5179075
cpu0_L2C PREFETCH  ACCESS:    5180673  HIT:    4325908  MISS:     854765
cpu0_L2C WRITEBACK ACCESS:    7002442  HIT:    6998278  MISS:       4164
cpu0_L2C TRANSLATION ACCESS:       4777  HIT:       3093  MISS:       1684
cpu0_L2C PREFETCH  REQUESTED:    2415482  ISSUED:    1893771  USEFUL:      45429  USELESS:      20710
cpu0_L2C AVERAGE MISS LATENCY: 645.668 cycles
LLC TOTAL     ACCESS:   12016061  HIT:    2417231  MISS:    9598830
LLC LOAD      ACCESS:     592758  HIT:     276898  MISS:     315860
LLC RFO       ACCESS:    5179050  HIT:     403677  MISS:    4775373
LLC PREFETCH  ACCESS:     859301  HIT:     610594  MISS:     248707
LLC WRITEBACK ACCESS:    5383268  HIT:    1125032  MISS:    4258236
LLC TRANSLATION ACCESS:       1684  HIT:       1030  MISS:        654
LLC PREFETCH  REQUESTED:          0  ISSUED:          0  USEFUL:          0  USELESS:          0
LLC AVERAGE MISS LATENCY: 427.894 cycles
OPTgen accesses: 91282
OPTgen hits: 21464
OPTgen hit rate: 23.5139



DRAM Statistics
 CHANNEL 0
 RQ ROW_BUFFER_HIT:    1769300  ROW_BUFFER_MISS:    3570646
 DBUS AVG_CONGESTED_CYCLE:    3.99145
 WQ ROW_BUFFER_HIT:     666250  ROW_BUFFER_MISS:    4210272  FULL:     745323


CPU 0 Branch Prediction Accuracy: 94.2635% MPKI: 7.67363 Average ROB Occupancy at Mispredict: 52.1403
Branch type MPKI
BRANCH_DIRECT_JUMP: 0.003432
BRANCH_INDIRECT: 0.001409
BRANCH_CONDITIONAL: 7.65102
BRANCH_DIRECT_CALL: 0.016796
BRANCH_INDIRECT_CALL: 0
BRANCH_RETURN: 0.000971

