
*** ChampSim Multicore Out-of-Order Simulator ***

Warmup Instructions: 1000000
Simulation Instructions: 1000000000
Number of CPUs: 1
Off-chip DRAM Size: 4 GiB Channels: 1 Width: 64-bit Data Rate: 3200 MT/s

VirtualMemory physical capacity: 8588881920 num_ppages: 2096895
VirtualMemory page size: 4096 log2_page_size: 12

CPU 0 runs tracer/pin/traces/spec2k6/437.leslie3d-273B.champsimtrace.xz
Basic BTB sets: 1024 ways: 8 indirect buffer size: 4096 RAS size: 64
cpu0_L1D next line prefetcher
cpu0_L2C IP-based stride prefetcher
Initialize Hawkeye state
WARNING: The extended signature CACHE::prefetch_line(ip, base_addr, pf_addr, fill_this_level, prefetch_metadata) is deprecated.
WARNING: Use CACHE::prefetch_line(pf_addr, fill_this_level, prefetch_metadata) instead.

Warmup complete CPU 0 instructions: 1000004 cycles: 379297 (Simulation time: 0 hr 0 min 3 sec) 

Heartbeat CPU 0 instructions: 10000004 cycles: 9958718 heartbeat IPC: 1.00415 cumulative IPC: 0.939514 (Simulation time: 0 hr 1 min 29 sec) 
Heartbeat CPU 0 instructions: 20000004 cycles: 19968855 heartbeat IPC: 0.998987 cumulative IPC: 0.969904 (Simulation time: 0 hr 2 min 53 sec) 
Heartbeat CPU 0 instructions: 30000002 cycles: 31474048 heartbeat IPC: 0.869173 cumulative IPC: 0.932633 (Simulation time: 0 hr 4 min 33 sec) 
Heartbeat CPU 0 instructions: 40000000 cycles: 42613654 heartbeat IPC: 0.897698 cumulative IPC: 0.923419 (Simulation time: 0 hr 6 min 9 sec) 
Heartbeat CPU 0 instructions: 50000000 cycles: 53937434 heartbeat IPC: 0.883097 cumulative IPC: 0.914894 (Simulation time: 0 hr 7 min 45 sec) 
Heartbeat CPU 0 instructions: 60000001 cycles: 65046207 heartbeat IPC: 0.90019 cumulative IPC: 0.912368 (Simulation time: 0 hr 9 min 25 sec) 
Heartbeat CPU 0 instructions: 70000001 cycles: 76448695 heartbeat IPC: 0.877002 cumulative IPC: 0.907066 (Simulation time: 0 hr 11 min 3 sec) 
Heartbeat CPU 0 instructions: 80000003 cycles: 87914495 heartbeat IPC: 0.872159 cumulative IPC: 0.902494 (Simulation time: 0 hr 12 min 43 sec) 
Heartbeat CPU 0 instructions: 90000000 cycles: 101597520 heartbeat IPC: 0.730832 cumulative IPC: 0.879288 (Simulation time: 0 hr 14 min 32 sec) 
Heartbeat CPU 0 instructions: 100000000 cycles: 116269900 heartbeat IPC: 0.681553 cumulative IPC: 0.854254 (Simulation time: 0 hr 16 min 22 sec) 
Heartbeat CPU 0 instructions: 110000003 cycles: 133383638 heartbeat IPC: 0.584326 cumulative IPC: 0.819522 (Simulation time: 0 hr 18 min 28 sec) 
Heartbeat CPU 0 instructions: 120000000 cycles: 147598144 heartbeat IPC: 0.703506 cumulative IPC: 0.80832 (Simulation time: 0 hr 20 min 23 sec) 
Heartbeat CPU 0 instructions: 130000002 cycles: 164517418 heartbeat IPC: 0.591042 cumulative IPC: 0.785923 (Simulation time: 0 hr 22 min 41 sec) 
Heartbeat CPU 0 instructions: 140000004 cycles: 182404687 heartbeat IPC: 0.559057 cumulative IPC: 0.76363 (Simulation time: 0 hr 24 min 59 sec) 
Heartbeat CPU 0 instructions: 150000001 cycles: 199339883 heartbeat IPC: 0.590486 cumulative IPC: 0.748892 (Simulation time: 0 hr 27 min 11 sec) 
Heartbeat CPU 0 instructions: 160000002 cycles: 212734665 heartbeat IPC: 0.746559 cumulative IPC: 0.748745 (Simulation time: 0 hr 29 min 3 sec) 
Heartbeat CPU 0 instructions: 170000002 cycles: 225817285 heartbeat IPC: 0.764373 cumulative IPC: 0.749652 (Simulation time: 0 hr 30 min 55 sec) 
Heartbeat CPU 0 instructions: 180000004 cycles: 238492815 heartbeat IPC: 0.788922 cumulative IPC: 0.751742 (Simulation time: 0 hr 32 min 45 sec) 
Heartbeat CPU 0 instructions: 190000002 cycles: 250853698 heartbeat IPC: 0.809004 cumulative IPC: 0.754568 (Simulation time: 0 hr 34 min 28 sec) 
Heartbeat CPU 0 instructions: 200000004 cycles: 263089182 heartbeat IPC: 0.817295 cumulative IPC: 0.75749 (Simulation time: 0 hr 36 min 14 sec) 
Heartbeat CPU 0 instructions: 210000000 cycles: 275816474 heartbeat IPC: 0.785713 cumulative IPC: 0.758794 (Simulation time: 0 hr 38 min 2 sec) 
Heartbeat CPU 0 instructions: 220000002 cycles: 288131715 heartbeat IPC: 0.812002 cumulative IPC: 0.761071 (Simulation time: 0 hr 39 min 43 sec) 
Heartbeat CPU 0 instructions: 230000000 cycles: 300368387 heartbeat IPC: 0.817216 cumulative IPC: 0.763361 (Simulation time: 0 hr 41 min 27 sec) 
Heartbeat CPU 0 instructions: 240000002 cycles: 312830479 heartbeat IPC: 0.802434 cumulative IPC: 0.764919 (Simulation time: 0 hr 43 min 17 sec) 
Heartbeat CPU 0 instructions: 250000001 cycles: 324688867 heartbeat IPC: 0.843285 cumulative IPC: 0.767785 (Simulation time: 0 hr 44 min 58 sec) 
Heartbeat CPU 0 instructions: 260000000 cycles: 336898277 heartbeat IPC: 0.81904 cumulative IPC: 0.769645 (Simulation time: 0 hr 46 min 35 sec) 
Heartbeat CPU 0 instructions: 270000003 cycles: 349089944 heartbeat IPC: 0.820233 cumulative IPC: 0.771413 (Simulation time: 0 hr 48 min 7 sec) 
Heartbeat CPU 0 instructions: 280000000 cycles: 361327947 heartbeat IPC: 0.817127 cumulative IPC: 0.772963 (Simulation time: 0 hr 49 min 39 sec) 
Heartbeat CPU 0 instructions: 290000002 cycles: 373764677 heartbeat IPC: 0.80407 cumulative IPC: 0.773999 (Simulation time: 0 hr 51 min 13 sec) 
Heartbeat CPU 0 instructions: 300000001 cycles: 385795225 heartbeat IPC: 0.831217 cumulative IPC: 0.775785 (Simulation time: 0 hr 52 min 42 sec) 
Heartbeat CPU 0 instructions: 310000000 cycles: 396703644 heartbeat IPC: 0.916723 cumulative IPC: 0.779664 (Simulation time: 0 hr 54 min 3 sec) 
Heartbeat CPU 0 instructions: 320000004 cycles: 407744873 heartbeat IPC: 0.905697 cumulative IPC: 0.78308 (Simulation time: 0 hr 55 min 21 sec) 
Heartbeat CPU 0 instructions: 330000003 cycles: 419204115 heartbeat IPC: 0.872658 cumulative IPC: 0.785531 (Simulation time: 0 hr 56 min 44 sec) 
Heartbeat CPU 0 instructions: 340000003 cycles: 430528433 heartbeat IPC: 0.883055 cumulative IPC: 0.788099 (Simulation time: 0 hr 58 min 0 sec) 
Heartbeat CPU 0 instructions: 350000001 cycles: 442411044 heartbeat IPC: 0.841566 cumulative IPC: 0.789536 (Simulation time: 0 hr 59 min 21 sec) 
Heartbeat CPU 0 instructions: 360000002 cycles: 455900308 heartbeat IPC: 0.74133 cumulative IPC: 0.788109 (Simulation time: 1 hr 0 min 51 sec) 
Heartbeat CPU 0 instructions: 370000000 cycles: 471560840 heartbeat IPC: 0.638548 cumulative IPC: 0.783138 (Simulation time: 1 hr 2 min 29 sec) 
Heartbeat CPU 0 instructions: 380000001 cycles: 485264883 heartbeat IPC: 0.729712 cumulative IPC: 0.781628 (Simulation time: 1 hr 4 min 10 sec) 
Heartbeat CPU 0 instructions: 390000002 cycles: 502887780 heartbeat IPC: 0.567444 cumulative IPC: 0.774116 (Simulation time: 1 hr 6 min 2 sec) 
Heartbeat CPU 0 instructions: 400000002 cycles: 520699890 heartbeat IPC: 0.561416 cumulative IPC: 0.766835 (Simulation time: 1 hr 7 min 50 sec) 
Heartbeat CPU 0 instructions: 410000002 cycles: 532327221 heartbeat IPC: 0.860043 cumulative IPC: 0.768872 (Simulation time: 1 hr 9 min 10 sec) 
Heartbeat CPU 0 instructions: 420000003 cycles: 543519951 heartbeat IPC: 0.893437 cumulative IPC: 0.771439 (Simulation time: 1 hr 10 min 25 sec) 
Heartbeat CPU 0 instructions: 430000004 cycles: 554225577 heartbeat IPC: 0.934088 cumulative IPC: 0.774583 (Simulation time: 1 hr 11 min 36 sec) 
Heartbeat CPU 0 instructions: 440000002 cycles: 565017116 heartbeat IPC: 0.926652 cumulative IPC: 0.77749 (Simulation time: 1 hr 12 min 50 sec) 
Heartbeat CPU 0 instructions: 450000001 cycles: 575864725 heartbeat IPC: 0.921862 cumulative IPC: 0.780211 (Simulation time: 1 hr 14 min 4 sec) 
Heartbeat CPU 0 instructions: 460000004 cycles: 586878791 heartbeat IPC: 0.90793 cumulative IPC: 0.782609 (Simulation time: 1 hr 15 min 18 sec) 
Heartbeat CPU 0 instructions: 470000002 cycles: 597600256 heartbeat IPC: 0.932708 cumulative IPC: 0.785304 (Simulation time: 1 hr 16 min 28 sec) 
Heartbeat CPU 0 instructions: 480000002 cycles: 608630244 heartbeat IPC: 0.906619 cumulative IPC: 0.787504 (Simulation time: 1 hr 17 min 36 sec) 
Heartbeat CPU 0 instructions: 490000000 cycles: 619268781 heartbeat IPC: 0.939979 cumulative IPC: 0.790125 (Simulation time: 1 hr 18 min 37 sec) 
Heartbeat CPU 0 instructions: 500000001 cycles: 630486440 heartbeat IPC: 0.891452 cumulative IPC: 0.791929 (Simulation time: 1 hr 19 min 39 sec) 
Heartbeat CPU 0 instructions: 510000000 cycles: 641388440 heartbeat IPC: 0.917263 cumulative IPC: 0.79406 (Simulation time: 1 hr 20 min 38 sec) 
Heartbeat CPU 0 instructions: 520000004 cycles: 652353074 heartbeat IPC: 0.912023 cumulative IPC: 0.796044 (Simulation time: 1 hr 21 min 37 sec) 
Heartbeat CPU 0 instructions: 530000001 cycles: 663072299 heartbeat IPC: 0.932903 cumulative IPC: 0.798258 (Simulation time: 1 hr 22 min 37 sec) 
Heartbeat CPU 0 instructions: 540000004 cycles: 673759491 heartbeat IPC: 0.9357 cumulative IPC: 0.800439 (Simulation time: 1 hr 23 min 36 sec) 
Heartbeat CPU 0 instructions: 550000000 cycles: 684757623 heartbeat IPC: 0.909245 cumulative IPC: 0.802188 (Simulation time: 1 hr 24 min 35 sec) 
Heartbeat CPU 0 instructions: 560000004 cycles: 706413294 heartbeat IPC: 0.461773 cumulative IPC: 0.791747 (Simulation time: 1 hr 26 min 3 sec) 
Heartbeat CPU 0 instructions: 570000000 cycles: 731419560 heartbeat IPC: 0.3999 cumulative IPC: 0.778343 (Simulation time: 1 hr 27 min 39 sec) 
Heartbeat CPU 0 instructions: 580000004 cycles: 756523836 heartbeat IPC: 0.398339 cumulative IPC: 0.765727 (Simulation time: 1 hr 29 min 15 sec) 
Heartbeat CPU 0 instructions: 590000000 cycles: 781723705 heartbeat IPC: 0.396827 cumulative IPC: 0.753829 (Simulation time: 1 hr 30 min 51 sec) 
Heartbeat CPU 0 instructions: 600000004 cycles: 826095737 heartbeat IPC: 0.225367 cumulative IPC: 0.725431 (Simulation time: 1 hr 33 min 25 sec) 
Heartbeat CPU 0 instructions: 610000000 cycles: 852602749 heartbeat IPC: 0.377259 cumulative IPC: 0.714601 (Simulation time: 1 hr 35 min 13 sec) 
Heartbeat CPU 0 instructions: 620000001 cycles: 866646855 heartbeat IPC: 0.712043 cumulative IPC: 0.71456 (Simulation time: 1 hr 36 min 19 sec) 
Heartbeat CPU 0 instructions: 630000004 cycles: 874407374 heartbeat IPC: 1.28857 cumulative IPC: 0.719657 (Simulation time: 1 hr 37 min 4 sec) 
Heartbeat CPU 0 instructions: 640000002 cycles: 882381033 heartbeat IPC: 1.25413 cumulative IPC: 0.724488 (Simulation time: 1 hr 37 min 50 sec) 
Heartbeat CPU 0 instructions: 650000003 cycles: 890338787 heartbeat IPC: 1.25664 cumulative IPC: 0.729247 (Simulation time: 1 hr 38 min 36 sec) 
Heartbeat CPU 0 instructions: 660000000 cycles: 897975694 heartbeat IPC: 1.30943 cumulative IPC: 0.734183 (Simulation time: 1 hr 39 min 22 sec) 
Heartbeat CPU 0 instructions: 670000001 cycles: 905879965 heartbeat IPC: 1.26514 cumulative IPC: 0.738818 (Simulation time: 1 hr 40 min 7 sec) 
Heartbeat CPU 0 instructions: 680000000 cycles: 913838626 heartbeat IPC: 1.25649 cumulative IPC: 0.743328 (Simulation time: 1 hr 40 min 53 sec) 
Heartbeat CPU 0 instructions: 690000000 cycles: 925544063 heartbeat IPC: 0.854304 cumulative IPC: 0.744732 (Simulation time: 1 hr 41 min 51 sec) 
Heartbeat CPU 0 instructions: 700000004 cycles: 940192736 heartbeat IPC: 0.682656 cumulative IPC: 0.743765 (Simulation time: 1 hr 42 min 56 sec) 
Heartbeat CPU 0 instructions: 710000002 cycles: 957389132 heartbeat IPC: 0.581517 cumulative IPC: 0.740849 (Simulation time: 1 hr 44 min 9 sec) 
Heartbeat CPU 0 instructions: 720000004 cycles: 970147842 heartbeat IPC: 0.783778 cumulative IPC: 0.741414 (Simulation time: 1 hr 45 min 15 sec) 
Heartbeat CPU 0 instructions: 730000003 cycles: 986897220 heartbeat IPC: 0.597037 cumulative IPC: 0.738963 (Simulation time: 1 hr 46 min 32 sec) 
Heartbeat CPU 0 instructions: 740000003 cycles: 1005512325 heartbeat IPC: 0.537198 cumulative IPC: 0.735226 (Simulation time: 1 hr 47 min 54 sec) 
Heartbeat CPU 0 instructions: 750000000 cycles: 1021817995 heartbeat IPC: 0.613283 cumulative IPC: 0.733279 (Simulation time: 1 hr 49 min 9 sec) 
Heartbeat CPU 0 instructions: 760000000 cycles: 1030714094 heartbeat IPC: 1.12409 cumulative IPC: 0.736654 (Simulation time: 1 hr 49 min 59 sec) 
Heartbeat CPU 0 instructions: 770000002 cycles: 1039682329 heartbeat IPC: 1.11505 cumulative IPC: 0.739919 (Simulation time: 1 hr 50 min 49 sec) 
Heartbeat CPU 0 instructions: 780000001 cycles: 1049064843 heartbeat IPC: 1.06581 cumulative IPC: 0.742835 (Simulation time: 1 hr 51 min 41 sec) 
Heartbeat CPU 0 instructions: 790000003 cycles: 1058683044 heartbeat IPC: 1.0397 cumulative IPC: 0.745533 (Simulation time: 1 hr 52 min 33 sec) 
Heartbeat CPU 0 instructions: 800000004 cycles: 1068661338 heartbeat IPC: 1.00218 cumulative IPC: 0.74793 (Simulation time: 1 hr 53 min 27 sec) 
Heartbeat CPU 0 instructions: 810000004 cycles: 1081298922 heartbeat IPC: 0.79129 cumulative IPC: 0.748437 (Simulation time: 1 hr 54 min 28 sec) 
Heartbeat CPU 0 instructions: 820000003 cycles: 1091085238 heartbeat IPC: 1.02183 cumulative IPC: 0.75089 (Simulation time: 1 hr 55 min 21 sec) 
Heartbeat CPU 0 instructions: 830000000 cycles: 1102245234 heartbeat IPC: 0.896057 cumulative IPC: 0.75236 (Simulation time: 1 hr 56 min 18 sec) 
Heartbeat CPU 0 instructions: 840000000 cycles: 1112767979 heartbeat IPC: 0.950322 cumulative IPC: 0.754233 (Simulation time: 1 hr 57 min 13 sec) 
Heartbeat CPU 0 instructions: 850000003 cycles: 1123472914 heartbeat IPC: 0.934149 cumulative IPC: 0.755948 (Simulation time: 1 hr 58 min 8 sec) 
Heartbeat CPU 0 instructions: 860000003 cycles: 1134132953 heartbeat IPC: 0.938083 cumulative IPC: 0.75766 (Simulation time: 1 hr 59 min 4 sec) 
Heartbeat CPU 0 instructions: 870000002 cycles: 1144886976 heartbeat IPC: 0.929884 cumulative IPC: 0.759278 (Simulation time: 1 hr 59 min 59 sec) 
Heartbeat CPU 0 instructions: 880000003 cycles: 1155776145 heartbeat IPC: 0.918344 cumulative IPC: 0.760778 (Simulation time: 2 hr 0 min 55 sec) 
Heartbeat CPU 0 instructions: 890000004 cycles: 1166637802 heartbeat IPC: 0.92067 cumulative IPC: 0.762267 (Simulation time: 2 hr 1 min 51 sec) 
Heartbeat CPU 0 instructions: 900000000 cycles: 1178701557 heartbeat IPC: 0.828929 cumulative IPC: 0.762949 (Simulation time: 2 hr 2 min 49 sec) 
Heartbeat CPU 0 instructions: 910000003 cycles: 1190309957 heartbeat IPC: 0.861445 cumulative IPC: 0.76391 (Simulation time: 2 hr 3 min 45 sec) 
Heartbeat CPU 0 instructions: 920000001 cycles: 1201570933 heartbeat IPC: 0.888022 cumulative IPC: 0.765074 (Simulation time: 2 hr 4 min 41 sec) 
Heartbeat CPU 0 instructions: 930000003 cycles: 1212784594 heartbeat IPC: 0.89177 cumulative IPC: 0.766245 (Simulation time: 2 hr 5 min 36 sec) 
Heartbeat CPU 0 instructions: 940000004 cycles: 1223918507 heartbeat IPC: 0.898157 cumulative IPC: 0.767446 (Simulation time: 2 hr 6 min 31 sec) 
Heartbeat CPU 0 instructions: 950000000 cycles: 1235308146 heartbeat IPC: 0.877991 cumulative IPC: 0.768465 (Simulation time: 2 hr 7 min 26 sec) 
Heartbeat CPU 0 instructions: 960000004 cycles: 1247832546 heartbeat IPC: 0.798442 cumulative IPC: 0.768766 (Simulation time: 2 hr 8 min 25 sec) 
Heartbeat CPU 0 instructions: 970000000 cycles: 1262307090 heartbeat IPC: 0.690868 cumulative IPC: 0.767873 (Simulation time: 2 hr 9 min 30 sec) 
Heartbeat CPU 0 instructions: 980000001 cycles: 1277557071 heartbeat IPC: 0.655739 cumulative IPC: 0.766534 (Simulation time: 2 hr 10 min 37 sec) 
Heartbeat CPU 0 instructions: 990000004 cycles: 1294249297 heartbeat IPC: 0.599081 cumulative IPC: 0.764374 (Simulation time: 2 hr 11 min 53 sec) 
Heartbeat CPU 0 instructions: 1000000001 cycles: 1310294116 heartbeat IPC: 0.623254 cumulative IPC: 0.762645 (Simulation time: 2 hr 13 min 8 sec) 
Finished CPU 0 instructions: 1000000002 cycles: 1311457907 cumulative IPC: 0.76251 (Simulation time: 2 hr 13 min 15 sec) 

ChampSim completed all CPUs

Region of Interest Statistics

CPU 0 cumulative IPC: 0.76251 instructions: 1000000002 cycles: 1311457907
cpu0_DTLB TOTAL     ACCESS:  239221407  HIT:  239001103  MISS:     220304
cpu0_DTLB LOAD      ACCESS:  215188008  HIT:  215014723  MISS:     173285
cpu0_DTLB RFO       ACCESS:   24033399  HIT:   23986380  MISS:      47019
cpu0_DTLB PREFETCH  ACCESS:          0  HIT:          0  MISS:          0
cpu0_DTLB WRITEBACK ACCESS:          0  HIT:          0  MISS:          0
cpu0_DTLB TRANSLATION ACCESS:          0  HIT:          0  MISS:          0
cpu0_DTLB PREFETCH  REQUESTED:          0  ISSUED:          0  USEFUL:          0  USELESS:          0
cpu0_DTLB AVERAGE MISS LATENCY: 49.2824 cycles
cpu0_ITLB TOTAL     ACCESS:    7643103  HIT:    7643087  MISS:         16
cpu0_ITLB LOAD      ACCESS:    7643103  HIT:    7643087  MISS:         16
cpu0_ITLB RFO       ACCESS:          0  HIT:          0  MISS:          0
cpu0_ITLB PREFETCH  ACCESS:          0  HIT:          0  MISS:          0
cpu0_ITLB WRITEBACK ACCESS:          0  HIT:          0  MISS:          0
cpu0_ITLB TRANSLATION ACCESS:          0  HIT:          0  MISS:          0
cpu0_ITLB PREFETCH  REQUESTED:          0  ISSUED:          0  USEFUL:          0  USELESS:          0
cpu0_ITLB AVERAGE MISS LATENCY: 481.062 cycles
cpu0_L1I TOTAL     ACCESS:   21510867  HIT:   21510197  MISS:        670
cpu0_L1I LOAD      ACCESS:   21510867  HIT:   21510197  MISS:        670
cpu0_L1I RFO       ACCESS:          0  HIT:          0  MISS:          0
cpu0_L1I PREFETCH  ACCESS:          0  HIT:          0  MISS:          0
cpu0_L1I WRITEBACK ACCESS:          0  HIT:          0  MISS:          0
cpu0_L1I TRANSLATION ACCESS:          0  HIT:          0  MISS:          0
cpu0_L1I PREFETCH  REQUESTED:          0  ISSUED:          0  USEFUL:          0  USELESS:          0
cpu0_L1I AVERAGE MISS LATENCY: 808.843 cycles
cpu0_STLB TOTAL     ACCESS:     220320  HIT:     111458  MISS:     108862
cpu0_STLB LOAD      ACCESS:     173301  HIT:      96417  MISS:      76884
cpu0_STLB RFO       ACCESS:      47019  HIT:      15041  MISS:      31978
cpu0_STLB PREFETCH  ACCESS:          0  HIT:          0  MISS:          0
cpu0_STLB WRITEBACK ACCESS:          0  HIT:          0  MISS:          0
cpu0_STLB TRANSLATION ACCESS:          0  HIT:          0  MISS:          0
cpu0_STLB PREFETCH  REQUESTED:          0  ISSUED:          0  USEFUL:          0  USELESS:          0
cpu0_STLB AVERAGE MISS LATENCY: 81.5592 cycles
cpu0_L1D TOTAL     ACCESS:  510998207  HIT:  498459547  MISS:   12538660
cpu0_L1D LOAD      ACCESS:  272395831  HIT:  267884214  MISS:    4511617
cpu0_L1D RFO       ACCESS:   21493300  HIT:   18738341  MISS:    2754959
cpu0_L1D PREFETCH  ACCESS:  217007786  HIT:  211754613  MISS:    5253173
cpu0_L1D WRITEBACK ACCESS:          0  HIT:          0  MISS:          0
cpu0_L1D TRANSLATION ACCESS:     101290  HIT:      82379  MISS:      18911
cpu0_L1D PREFETCH  REQUESTED:  276958529  ISSUED:  242665644  USEFUL:    8038145  USELESS:     373624
cpu0_L1D AVERAGE MISS LATENCY: 257.879 cycles
cpu0_L2C TOTAL     ACCESS:   19404891  HIT:   11160267  MISS:    8244624
cpu0_L2C LOAD      ACCESS:    1437111  HIT:    1196814  MISS:     240297
cpu0_L2C RFO       ACCESS:    2668872  HIT:     871664  MISS:    1797208
cpu0_L2C PREFETCH  ACCESS:   11703112  HIT:    5499296  MISS:    6203816
cpu0_L2C WRITEBACK ACCESS:    3576885  HIT:    3574227  MISS:       2658
cpu0_L2C TRANSLATION ACCESS:      18911  HIT:      18266  MISS:        645
cpu0_L2C PREFETCH  REQUESTED:    3416810  ISSUED:    3416070  USEFUL:     124271  USELESS:      42386
cpu0_L2C AVERAGE MISS LATENCY: 706.498 cycles
LLC TOTAL     ACCESS:   10620848  HIT:    1994227  MISS:    8626621
LLC LOAD      ACCESS:     240294  HIT:      65215  MISS:     175079
LLC RFO       ACCESS:    1797201  HIT:     121701  MISS:    1675500
LLC PREFETCH  ACCESS:    6218299  HIT:    1024768  MISS:    5193531
LLC WRITEBACK ACCESS:    2364409  HIT:     782379  MISS:    1582030
LLC TRANSLATION ACCESS:        645  HIT:        164  MISS:        481
LLC PREFETCH  REQUESTED:          0  ISSUED:          0  USEFUL:          0  USELESS:          0
LLC AVERAGE MISS LATENCY: 652.492 cycles
OPTgen accesses: 33216
OPTgen hits: 11044
OPTgen hit rate: 33.249



DRAM Statistics
 CHANNEL 0
 RQ ROW_BUFFER_HIT:     217442  ROW_BUFFER_MISS:    6825640
 DBUS AVG_CONGESTED_CYCLE:    3.98058
 WQ ROW_BUFFER_HIT:     137039  ROW_BUFFER_MISS:    2076315  FULL:      10707


CPU 0 Branch Prediction Accuracy: 99.0134% MPKI: 0.246289 Average ROB Occupancy at Mispredict: 122.799
Branch type MPKI
BRANCH_DIRECT_JUMP: 5.5e-05
BRANCH_INDIRECT: 0
BRANCH_CONDITIONAL: 0.245999
BRANCH_DIRECT_CALL: 0.00012
BRANCH_INDIRECT_CALL: 0
BRANCH_RETURN: 0.000115

