
*** ChampSim Multicore Out-of-Order Simulator ***

Warmup Instructions: 1000000
Simulation Instructions: 1000000000
Number of CPUs: 1
Off-chip DRAM Size: 4 GiB Channels: 1 Width: 64-bit Data Rate: 3200 MT/s

VirtualMemory physical capacity: 8588881920 num_ppages: 2096895
VirtualMemory page size: 4096 log2_page_size: 12

CPU 0 runs tracer/pin/traces/spec2k6/483.xalancbmk-716B.champsimtrace.xz
Basic BTB sets: 1024 ways: 8 indirect buffer size: 4096 RAS size: 64
cpu0_L1D next line prefetcher
cpu0_L2C IP-based stride prefetcher
Initialize Hawkeye state
WARNING: The extended signature CACHE::prefetch_line(ip, base_addr, pf_addr, fill_this_level, prefetch_metadata) is deprecated.
WARNING: Use CACHE::prefetch_line(pf_addr, fill_this_level, prefetch_metadata) instead.

Warmup complete CPU 0 instructions: 1000004 cycles: 250081 (Simulation time: 0 hr 0 min 3 sec) 

Heartbeat CPU 0 instructions: 10000000 cycles: 4477238 heartbeat IPC: 2.23352 cumulative IPC: 2.12909 (Simulation time: 0 hr 0 min 50 sec) 
Heartbeat CPU 0 instructions: 20000001 cycles: 9325028 heartbeat IPC: 2.0628 cumulative IPC: 2.09368 (Simulation time: 0 hr 1 min 40 sec) 
Heartbeat CPU 0 instructions: 30000001 cycles: 14971519 heartbeat IPC: 1.77101 cumulative IPC: 1.96992 (Simulation time: 0 hr 2 min 33 sec) 
Heartbeat CPU 0 instructions: 40000003 cycles: 22254935 heartbeat IPC: 1.37298 cumulative IPC: 1.77234 (Simulation time: 0 hr 3 min 31 sec) 
Heartbeat CPU 0 instructions: 50000000 cycles: 36534781 heartbeat IPC: 0.700287 cumulative IPC: 1.35043 (Simulation time: 0 hr 4 min 52 sec) 
Heartbeat CPU 0 instructions: 60000000 cycles: 43013356 heartbeat IPC: 1.54355 cumulative IPC: 1.37969 (Simulation time: 0 hr 5 min 45 sec) 
Heartbeat CPU 0 instructions: 70000000 cycles: 53645862 heartbeat IPC: 0.940512 cumulative IPC: 1.29224 (Simulation time: 0 hr 6 min 47 sec) 
Heartbeat CPU 0 instructions: 80000000 cycles: 61797464 heartbeat IPC: 1.22675 cumulative IPC: 1.28356 (Simulation time: 0 hr 7 min 44 sec) 
Heartbeat CPU 0 instructions: 90000002 cycles: 68932909 heartbeat IPC: 1.40145 cumulative IPC: 1.29581 (Simulation time: 0 hr 8 min 39 sec) 
Heartbeat CPU 0 instructions: 100000003 cycles: 74427375 heartbeat IPC: 1.82001 cumulative IPC: 1.33464 (Simulation time: 0 hr 9 min 28 sec) 
Heartbeat CPU 0 instructions: 110000003 cycles: 79486850 heartbeat IPC: 1.97649 cumulative IPC: 1.37562 (Simulation time: 0 hr 10 min 15 sec) 
Heartbeat CPU 0 instructions: 120000002 cycles: 90489786 heartbeat IPC: 0.908848 cumulative IPC: 1.31871 (Simulation time: 0 hr 11 min 19 sec) 
Heartbeat CPU 0 instructions: 130000002 cycles: 97972026 heartbeat IPC: 1.3365 cumulative IPC: 1.32007 (Simulation time: 0 hr 12 min 11 sec) 
Heartbeat CPU 0 instructions: 140000001 cycles: 106414968 heartbeat IPC: 1.18442 cumulative IPC: 1.30928 (Simulation time: 0 hr 13 min 9 sec) 
Heartbeat CPU 0 instructions: 150000000 cycles: 115008048 heartbeat IPC: 1.16373 cumulative IPC: 1.29838 (Simulation time: 0 hr 14 min 6 sec) 
Heartbeat CPU 0 instructions: 160000000 cycles: 122316017 heartbeat IPC: 1.36837 cumulative IPC: 1.30257 (Simulation time: 0 hr 15 min 2 sec) 
Heartbeat CPU 0 instructions: 170000001 cycles: 127649596 heartbeat IPC: 1.87491 cumulative IPC: 1.32654 (Simulation time: 0 hr 15 min 53 sec) 
Heartbeat CPU 0 instructions: 180000001 cycles: 137473637 heartbeat IPC: 1.01791 cumulative IPC: 1.30444 (Simulation time: 0 hr 16 min 59 sec) 
Heartbeat CPU 0 instructions: 190000001 cycles: 145006542 heartbeat IPC: 1.32751 cumulative IPC: 1.30564 (Simulation time: 0 hr 17 min 59 sec) 
Heartbeat CPU 0 instructions: 200000001 cycles: 151811548 heartbeat IPC: 1.46951 cumulative IPC: 1.313 (Simulation time: 0 hr 18 min 56 sec) 
Heartbeat CPU 0 instructions: 210000000 cycles: 157208379 heartbeat IPC: 1.85294 cumulative IPC: 1.33156 (Simulation time: 0 hr 19 min 48 sec) 
Heartbeat CPU 0 instructions: 220000003 cycles: 161820058 heartbeat IPC: 2.16841 cumulative IPC: 1.35545 (Simulation time: 0 hr 20 min 38 sec) 
Heartbeat CPU 0 instructions: 230000003 cycles: 171767271 heartbeat IPC: 1.00531 cumulative IPC: 1.33514 (Simulation time: 0 hr 21 min 47 sec) 
Heartbeat CPU 0 instructions: 240000003 cycles: 179831762 heartbeat IPC: 1.24 cumulative IPC: 1.33087 (Simulation time: 0 hr 22 min 47 sec) 
Heartbeat CPU 0 instructions: 250000004 cycles: 187190944 heartbeat IPC: 1.35885 cumulative IPC: 1.33197 (Simulation time: 0 hr 23 min 46 sec) 
Heartbeat CPU 0 instructions: 260000004 cycles: 193873333 heartbeat IPC: 1.49647 cumulative IPC: 1.33765 (Simulation time: 0 hr 24 min 43 sec) 
Heartbeat CPU 0 instructions: 270000001 cycles: 198691454 heartbeat IPC: 2.0755 cumulative IPC: 1.35556 (Simulation time: 0 hr 25 min 33 sec) 
Heartbeat CPU 0 instructions: 280000000 cycles: 203467005 heartbeat IPC: 2.094 cumulative IPC: 1.37292 (Simulation time: 0 hr 26 min 24 sec) 
Heartbeat CPU 0 instructions: 290000000 cycles: 213594299 heartbeat IPC: 0.987431 cumulative IPC: 1.35462 (Simulation time: 0 hr 27 min 32 sec) 
Heartbeat CPU 0 instructions: 300000002 cycles: 221807303 heartbeat IPC: 1.21758 cumulative IPC: 1.34954 (Simulation time: 0 hr 28 min 33 sec) 
Heartbeat CPU 0 instructions: 310000003 cycles: 229442780 heartbeat IPC: 1.30968 cumulative IPC: 1.34821 (Simulation time: 0 hr 29 min 31 sec) 
Heartbeat CPU 0 instructions: 320000000 cycles: 237310131 heartbeat IPC: 1.27108 cumulative IPC: 1.34565 (Simulation time: 0 hr 30 min 31 sec) 
Heartbeat CPU 0 instructions: 330000001 cycles: 245057353 heartbeat IPC: 1.29079 cumulative IPC: 1.34391 (Simulation time: 0 hr 31 min 29 sec) 
Heartbeat CPU 0 instructions: 340000002 cycles: 252131541 heartbeat IPC: 1.41359 cumulative IPC: 1.34587 (Simulation time: 0 hr 32 min 27 sec) 
Heartbeat CPU 0 instructions: 350000002 cycles: 258664039 heartbeat IPC: 1.53081 cumulative IPC: 1.35055 (Simulation time: 0 hr 33 min 23 sec) 
Heartbeat CPU 0 instructions: 360000000 cycles: 263968133 heartbeat IPC: 1.88534 cumulative IPC: 1.3613 (Simulation time: 0 hr 34 min 16 sec) 
Heartbeat CPU 0 instructions: 370000001 cycles: 268076808 heartbeat IPC: 2.43387 cumulative IPC: 1.37776 (Simulation time: 0 hr 35 min 4 sec) 
Heartbeat CPU 0 instructions: 380000000 cycles: 272771035 heartbeat IPC: 2.13028 cumulative IPC: 1.39072 (Simulation time: 0 hr 35 min 55 sec) 
Heartbeat CPU 0 instructions: 390000002 cycles: 284398226 heartbeat IPC: 0.860053 cumulative IPC: 1.369 (Simulation time: 0 hr 37 min 12 sec) 
Heartbeat CPU 0 instructions: 400000000 cycles: 292904247 heartbeat IPC: 1.17564 cumulative IPC: 1.36338 (Simulation time: 0 hr 38 min 12 sec) 
Heartbeat CPU 0 instructions: 410000002 cycles: 300810035 heartbeat IPC: 1.2649 cumulative IPC: 1.36079 (Simulation time: 0 hr 39 min 9 sec) 
Heartbeat CPU 0 instructions: 420000002 cycles: 308024985 heartbeat IPC: 1.38601 cumulative IPC: 1.36138 (Simulation time: 0 hr 40 min 6 sec) 
Heartbeat CPU 0 instructions: 430000000 cycles: 314837722 heartbeat IPC: 1.46784 cumulative IPC: 1.36369 (Simulation time: 0 hr 41 min 0 sec) 
Heartbeat CPU 0 instructions: 440000000 cycles: 321142225 heartbeat IPC: 1.58617 cumulative IPC: 1.36806 (Simulation time: 0 hr 41 min 54 sec) 
Heartbeat CPU 0 instructions: 450000001 cycles: 325867440 heartbeat IPC: 2.11631 cumulative IPC: 1.37892 (Simulation time: 0 hr 42 min 42 sec) 
Heartbeat CPU 0 instructions: 460000003 cycles: 330023899 heartbeat IPC: 2.40589 cumulative IPC: 1.39186 (Simulation time: 0 hr 43 min 27 sec) 
Heartbeat CPU 0 instructions: 470000002 cycles: 334581689 heartbeat IPC: 2.19405 cumulative IPC: 1.4028 (Simulation time: 0 hr 44 min 16 sec) 
Heartbeat CPU 0 instructions: 480000000 cycles: 344715772 heartbeat IPC: 0.986769 cumulative IPC: 1.39056 (Simulation time: 0 hr 45 min 26 sec) 
Heartbeat CPU 0 instructions: 490000000 cycles: 352906742 heartbeat IPC: 1.22086 cumulative IPC: 1.38662 (Simulation time: 0 hr 46 min 27 sec) 
Heartbeat CPU 0 instructions: 500000002 cycles: 359014889 heartbeat IPC: 1.63716 cumulative IPC: 1.39088 (Simulation time: 0 hr 47 min 21 sec) 
Heartbeat CPU 0 instructions: 510000001 cycles: 367923108 heartbeat IPC: 1.12256 cumulative IPC: 1.38438 (Simulation time: 0 hr 48 min 23 sec) 
Heartbeat CPU 0 instructions: 520000000 cycles: 375782035 heartbeat IPC: 1.27244 cumulative IPC: 1.38204 (Simulation time: 0 hr 49 min 23 sec) 
Heartbeat CPU 0 instructions: 530000001 cycles: 382973189 heartbeat IPC: 1.3906 cumulative IPC: 1.3822 (Simulation time: 0 hr 50 min 20 sec) 
Heartbeat CPU 0 instructions: 540000004 cycles: 392157076 heartbeat IPC: 1.08886 cumulative IPC: 1.37533 (Simulation time: 0 hr 51 min 25 sec) 
Heartbeat CPU 0 instructions: 550000000 cycles: 400234200 heartbeat IPC: 1.23806 cumulative IPC: 1.37255 (Simulation time: 0 hr 52 min 24 sec) 
Heartbeat CPU 0 instructions: 560000002 cycles: 406325970 heartbeat IPC: 1.64156 cumulative IPC: 1.37659 (Simulation time: 0 hr 53 min 19 sec) 
Heartbeat CPU 0 instructions: 570000001 cycles: 413880557 heartbeat IPC: 1.3237 cumulative IPC: 1.37562 (Simulation time: 0 hr 54 min 17 sec) 
Heartbeat CPU 0 instructions: 580000000 cycles: 423206931 heartbeat IPC: 1.07223 cumulative IPC: 1.36893 (Simulation time: 0 hr 55 min 21 sec) 
Heartbeat CPU 0 instructions: 590000000 cycles: 429629178 heartbeat IPC: 1.55709 cumulative IPC: 1.37175 (Simulation time: 0 hr 56 min 16 sec) 
Heartbeat CPU 0 instructions: 600000000 cycles: 438447624 heartbeat IPC: 1.13399 cumulative IPC: 1.36696 (Simulation time: 0 hr 57 min 19 sec) 
Heartbeat CPU 0 instructions: 610000003 cycles: 445869869 heartbeat IPC: 1.3473 cumulative IPC: 1.36664 (Simulation time: 0 hr 58 min 17 sec) 
Heartbeat CPU 0 instructions: 620000003 cycles: 451305283 heartbeat IPC: 1.83979 cumulative IPC: 1.37234 (Simulation time: 0 hr 59 min 10 sec) 
Heartbeat CPU 0 instructions: 630000001 cycles: 462027225 heartbeat IPC: 0.932667 cumulative IPC: 1.36213 (Simulation time: 1 hr 0 min 20 sec) 
Heartbeat CPU 0 instructions: 640000000 cycles: 469921966 heartbeat IPC: 1.26667 cumulative IPC: 1.36052 (Simulation time: 1 hr 1 min 19 sec) 
Heartbeat CPU 0 instructions: 650000003 cycles: 477561930 heartbeat IPC: 1.30891 cumulative IPC: 1.3597 (Simulation time: 1 hr 2 min 19 sec) 
Heartbeat CPU 0 instructions: 660000001 cycles: 485190735 heartbeat IPC: 1.31082 cumulative IPC: 1.35893 (Simulation time: 1 hr 3 min 17 sec) 
Heartbeat CPU 0 instructions: 670000001 cycles: 490941900 heartbeat IPC: 1.73878 cumulative IPC: 1.36338 (Simulation time: 1 hr 4 min 10 sec) 
Heartbeat CPU 0 instructions: 680000002 cycles: 500864423 heartbeat IPC: 1.00781 cumulative IPC: 1.35633 (Simulation time: 1 hr 5 min 17 sec) 
Heartbeat CPU 0 instructions: 690000001 cycles: 508685663 heartbeat IPC: 1.27857 cumulative IPC: 1.35514 (Simulation time: 1 hr 6 min 16 sec) 
Heartbeat CPU 0 instructions: 700000003 cycles: 515768349 heartbeat IPC: 1.41189 cumulative IPC: 1.35592 (Simulation time: 1 hr 7 min 15 sec) 
Heartbeat CPU 0 instructions: 710000001 cycles: 522590982 heartbeat IPC: 1.46571 cumulative IPC: 1.35735 (Simulation time: 1 hr 8 min 13 sec) 
Heartbeat CPU 0 instructions: 720000002 cycles: 529000252 heartbeat IPC: 1.56024 cumulative IPC: 1.35981 (Simulation time: 1 hr 9 min 10 sec) 
Heartbeat CPU 0 instructions: 730000003 cycles: 535230092 heartbeat IPC: 1.60518 cumulative IPC: 1.36267 (Simulation time: 1 hr 10 min 6 sec) 
Heartbeat CPU 0 instructions: 740000001 cycles: 539755613 heartbeat IPC: 2.20969 cumulative IPC: 1.36977 (Simulation time: 1 hr 10 min 56 sec) 
Heartbeat CPU 0 instructions: 750000003 cycles: 543925719 heartbeat IPC: 2.39802 cumulative IPC: 1.37766 (Simulation time: 1 hr 11 min 46 sec) 
Heartbeat CPU 0 instructions: 760000003 cycles: 548142762 heartbeat IPC: 2.37133 cumulative IPC: 1.38531 (Simulation time: 1 hr 12 min 34 sec) 
Heartbeat CPU 0 instructions: 770000001 cycles: 553262875 heartbeat IPC: 1.95308 cumulative IPC: 1.39056 (Simulation time: 1 hr 13 min 27 sec) 
Heartbeat CPU 0 instructions: 780000001 cycles: 566127744 heartbeat IPC: 0.777311 cumulative IPC: 1.37662 (Simulation time: 1 hr 14 min 48 sec) 
Heartbeat CPU 0 instructions: 790000003 cycles: 574080359 heartbeat IPC: 1.25745 cumulative IPC: 1.37497 (Simulation time: 1 hr 15 min 49 sec) 
Heartbeat CPU 0 instructions: 800000002 cycles: 580130291 heartbeat IPC: 1.65291 cumulative IPC: 1.37787 (Simulation time: 1 hr 16 min 43 sec) 
Heartbeat CPU 0 instructions: 810000001 cycles: 589459693 heartbeat IPC: 1.07188 cumulative IPC: 1.37303 (Simulation time: 1 hr 17 min 47 sec) 
Heartbeat CPU 0 instructions: 820000004 cycles: 596925631 heartbeat IPC: 1.33942 cumulative IPC: 1.37261 (Simulation time: 1 hr 18 min 46 sec) 
Heartbeat CPU 0 instructions: 830000002 cycles: 602787486 heartbeat IPC: 1.70594 cumulative IPC: 1.37585 (Simulation time: 1 hr 19 min 38 sec) 
Heartbeat CPU 0 instructions: 840000000 cycles: 609591934 heartbeat IPC: 1.46963 cumulative IPC: 1.3769 (Simulation time: 1 hr 20 min 35 sec) 
Heartbeat CPU 0 instructions: 850000003 cycles: 619545480 heartbeat IPC: 1.00467 cumulative IPC: 1.37091 (Simulation time: 1 hr 21 min 42 sec) 
Heartbeat CPU 0 instructions: 860000001 cycles: 626512434 heartbeat IPC: 1.43535 cumulative IPC: 1.37163 (Simulation time: 1 hr 22 min 39 sec) 
Heartbeat CPU 0 instructions: 870000000 cycles: 635167201 heartbeat IPC: 1.15543 cumulative IPC: 1.36868 (Simulation time: 1 hr 23 min 44 sec) 
Heartbeat CPU 0 instructions: 880000004 cycles: 643262485 heartbeat IPC: 1.23529 cumulative IPC: 1.367 (Simulation time: 1 hr 24 min 45 sec) 
Heartbeat CPU 0 instructions: 890000001 cycles: 650671128 heartbeat IPC: 1.34977 cumulative IPC: 1.36681 (Simulation time: 1 hr 25 min 44 sec) 
Heartbeat CPU 0 instructions: 900000002 cycles: 657681629 heartbeat IPC: 1.42643 cumulative IPC: 1.36744 (Simulation time: 1 hr 26 min 43 sec) 
Heartbeat CPU 0 instructions: 910000000 cycles: 664370471 heartbeat IPC: 1.49503 cumulative IPC: 1.36873 (Simulation time: 1 hr 27 min 40 sec) 
Heartbeat CPU 0 instructions: 920000002 cycles: 671058183 heartbeat IPC: 1.49528 cumulative IPC: 1.36999 (Simulation time: 1 hr 28 min 35 sec) 
Heartbeat CPU 0 instructions: 930000002 cycles: 677579957 heartbeat IPC: 1.53333 cumulative IPC: 1.37156 (Simulation time: 1 hr 29 min 31 sec) 
Heartbeat CPU 0 instructions: 940000001 cycles: 683921296 heartbeat IPC: 1.57695 cumulative IPC: 1.37347 (Simulation time: 1 hr 30 min 25 sec) 
Heartbeat CPU 0 instructions: 950000000 cycles: 689277367 heartbeat IPC: 1.86704 cumulative IPC: 1.3773 (Simulation time: 1 hr 31 min 17 sec) 
Heartbeat CPU 0 instructions: 960000001 cycles: 693516743 heartbeat IPC: 2.35884 cumulative IPC: 1.38331 (Simulation time: 1 hr 32 min 3 sec) 
Heartbeat CPU 0 instructions: 970000001 cycles: 697713606 heartbeat IPC: 2.38273 cumulative IPC: 1.38932 (Simulation time: 1 hr 32 min 51 sec) 
Heartbeat CPU 0 instructions: 980000003 cycles: 701873558 heartbeat IPC: 2.40387 cumulative IPC: 1.39534 (Simulation time: 1 hr 33 min 38 sec) 
Heartbeat CPU 0 instructions: 990000002 cycles: 706228259 heartbeat IPC: 2.29637 cumulative IPC: 1.40089 (Simulation time: 1 hr 34 min 26 sec) 
Heartbeat CPU 0 instructions: 1000000001 cycles: 711201096 heartbeat IPC: 2.01092 cumulative IPC: 1.40516 (Simulation time: 1 hr 35 min 17 sec) 
Finished CPU 0 instructions: 1000000001 cycles: 711510638 cumulative IPC: 1.40546 (Simulation time: 1 hr 35 min 22 sec) 

ChampSim completed all CPUs

Region of Interest Statistics

CPU 0 cumulative IPC: 1.40546 instructions: 1000000001 cycles: 711510638
cpu0_DTLB TOTAL     ACCESS:  152109944  HIT:  144309397  MISS:    7800547
cpu0_DTLB LOAD      ACCESS:  108964220  HIT:  101710450  MISS:    7253770
cpu0_DTLB RFO       ACCESS:   43145724  HIT:   42598947  MISS:     546777
cpu0_DTLB PREFETCH  ACCESS:          0  HIT:          0  MISS:          0
cpu0_DTLB WRITEBACK ACCESS:          0  HIT:          0  MISS:          0
cpu0_DTLB TRANSLATION ACCESS:          0  HIT:          0  MISS:          0
cpu0_DTLB PREFETCH  REQUESTED:          0  ISSUED:          0  USEFUL:          0  USELESS:          0
cpu0_DTLB AVERAGE MISS LATENCY: 11.5171 cycles
cpu0_ITLB TOTAL     ACCESS:   51666696  HIT:   50928522  MISS:     738174
cpu0_ITLB LOAD      ACCESS:   51666696  HIT:   50928522  MISS:     738174
cpu0_ITLB RFO       ACCESS:          0  HIT:          0  MISS:          0
cpu0_ITLB PREFETCH  ACCESS:          0  HIT:          0  MISS:          0
cpu0_ITLB WRITEBACK ACCESS:          0  HIT:          0  MISS:          0
cpu0_ITLB TRANSLATION ACCESS:          0  HIT:          0  MISS:          0
cpu0_ITLB PREFETCH  REQUESTED:          0  ISSUED:          0  USEFUL:          0  USELESS:          0
cpu0_ITLB AVERAGE MISS LATENCY: 9.12689 cycles
cpu0_L1I TOTAL     ACCESS:   44515468  HIT:   44027764  MISS:     487704
cpu0_L1I LOAD      ACCESS:   44515468  HIT:   44027764  MISS:     487704
cpu0_L1I RFO       ACCESS:          0  HIT:          0  MISS:          0
cpu0_L1I PREFETCH  ACCESS:          0  HIT:          0  MISS:          0
cpu0_L1I WRITEBACK ACCESS:          0  HIT:          0  MISS:          0
cpu0_L1I TRANSLATION ACCESS:          0  HIT:          0  MISS:          0
cpu0_L1I PREFETCH  REQUESTED:          0  ISSUED:          0  USEFUL:          0  USELESS:          0
cpu0_L1I AVERAGE MISS LATENCY: 33.3602 cycles
cpu0_STLB TOTAL     ACCESS:    8538721  HIT:    7898330  MISS:     640391
cpu0_STLB LOAD      ACCESS:    7991944  HIT:    7600402  MISS:     391542
cpu0_STLB RFO       ACCESS:     546777  HIT:     297928  MISS:     248849
cpu0_STLB PREFETCH  ACCESS:          0  HIT:          0  MISS:          0
cpu0_STLB WRITEBACK ACCESS:          0  HIT:          0  MISS:          0
cpu0_STLB TRANSLATION ACCESS:          0  HIT:          0  MISS:          0
cpu0_STLB PREFETCH  REQUESTED:          0  ISSUED:          0  USEFUL:          0  USELESS:          0
cpu0_STLB AVERAGE MISS LATENCY: 30.6965 cycles
cpu0_L1D TOTAL     ACCESS:  274460256  HIT:  246158319  MISS:   28301937
cpu0_L1D LOAD      ACCESS:  113329284  HIT:   95265230  MISS:   18064054
cpu0_L1D RFO       ACCESS:   67104467  HIT:   65386055  MISS:    1718412
cpu0_L1D PREFETCH  ACCESS:   93450790  HIT:   85119353  MISS:    8331437
cpu0_L1D WRITEBACK ACCESS:          0  HIT:          0  MISS:          0
cpu0_L1D TRANSLATION ACCESS:     575715  HIT:     387681  MISS:     188034
cpu0_L1D PREFETCH  REQUESTED:  116332772  ISSUED:  115022227  USEFUL:   10315825  USELESS:    4863156
cpu0_L1D AVERAGE MISS LATENCY: 43.4927 cycles
cpu0_L2C TOTAL     ACCESS:   42974830  HIT:   38863275  MISS:    4111555
cpu0_L2C LOAD      ACCESS:   11711074  HIT:   10441702  MISS:    1269372
cpu0_L2C RFO       ACCESS:    1709575  HIT:     373142  MISS:    1336433
cpu0_L2C PREFETCH  ACCESS:   26123761  HIT:   24629487  MISS:    1494274
cpu0_L2C WRITEBACK ACCESS:    3242386  HIT:    3239721  MISS:       2665
cpu0_L2C TRANSLATION ACCESS:     188034  HIT:     179223  MISS:       8811
cpu0_L2C PREFETCH  REQUESTED:   19453920  ISSUED:   11335634  USEFUL:      79933  USELESS:     127829
cpu0_L2C AVERAGE MISS LATENCY: 263.166 cycles
LLC TOTAL     ACCESS:    6285162  HIT:    2859396  MISS:    3425766
LLC LOAD      ACCESS:    1269310  HIT:     926250  MISS:     343060
LLC RFO       ACCESS:    1336432  HIT:     123469  MISS:    1212963
LLC PREFETCH  ACCESS:    1507936  HIT:     638638  MISS:     869298
LLC WRITEBACK ACCESS:    2162673  HIT:    1163339  MISS:     999334
LLC TRANSLATION ACCESS:       8811  HIT:       7700  MISS:       1111
LLC PREFETCH  REQUESTED:          0  ISSUED:          0  USEFUL:          0  USELESS:          0
LLC AVERAGE MISS LATENCY: 287.845 cycles
OPTgen accesses: 43023
OPTgen hits: 27331
OPTgen hit rate: 63.5265



DRAM Statistics
 CHANNEL 0
 RQ ROW_BUFFER_HIT:     513738  ROW_BUFFER_MISS:    1912320
 DBUS AVG_CONGESTED_CYCLE:    3.93144
 WQ ROW_BUFFER_HIT:     163139  ROW_BUFFER_MISS:    1480037  FULL:          0


CPU 0 Branch Prediction Accuracy: 97.8297% MPKI: 5.49416 Average ROB Occupancy at Mispredict: 39.3229
Branch type MPKI
BRANCH_DIRECT_JUMP: 0.000306
BRANCH_INDIRECT: 0.244936
BRANCH_CONDITIONAL: 3.88154
BRANCH_DIRECT_CALL: 0.000639
BRANCH_INDIRECT_CALL: 0.288531
BRANCH_RETURN: 1.0782

