
*** ChampSim Multicore Out-of-Order Simulator ***

Warmup Instructions: 1000000
Simulation Instructions: 1000000000
Number of CPUs: 1
Off-chip DRAM Size: 4 GiB Channels: 1 Width: 64-bit Data Rate: 3200 MT/s

VirtualMemory physical capacity: 8588881920 num_ppages: 2096895
VirtualMemory page size: 4096 log2_page_size: 12

CPU 0 runs tracer/pin/traces/spec2k6/482.sphinx3-1395B.champsimtrace.xz
Basic BTB sets: 1024 ways: 8 indirect buffer size: 4096 RAS size: 64
cpu0_L1D next line prefetcher
cpu0_L2C IP-based stride prefetcher
Initialize Hawkeye state
WARNING: The extended signature CACHE::prefetch_line(ip, base_addr, pf_addr, fill_this_level, prefetch_metadata) is deprecated.
WARNING: Use CACHE::prefetch_line(pf_addr, fill_this_level, prefetch_metadata) instead.

Warmup complete CPU 0 instructions: 1000003 cycles: 274175 (Simulation time: 0 hr 0 min 3 sec) 

Heartbeat CPU 0 instructions: 10000004 cycles: 10386787 heartbeat IPC: 0.962762 cumulative IPC: 0.889978 (Simulation time: 0 hr 1 min 12 sec) 
Heartbeat CPU 0 instructions: 20000002 cycles: 21679203 heartbeat IPC: 0.88555 cumulative IPC: 0.887642 (Simulation time: 0 hr 2 min 29 sec) 
Heartbeat CPU 0 instructions: 30000002 cycles: 34595493 heartbeat IPC: 0.774216 cumulative IPC: 0.844956 (Simulation time: 0 hr 3 min 54 sec) 
Heartbeat CPU 0 instructions: 40000001 cycles: 48727904 heartbeat IPC: 0.707593 cumulative IPC: 0.804892 (Simulation time: 0 hr 5 min 23 sec) 
Heartbeat CPU 0 instructions: 50000004 cycles: 63128811 heartbeat IPC: 0.694401 cumulative IPC: 0.779577 (Simulation time: 0 hr 6 min 53 sec) 
Heartbeat CPU 0 instructions: 60000003 cycles: 75139359 heartbeat IPC: 0.832601 cumulative IPC: 0.788083 (Simulation time: 0 hr 8 min 13 sec) 
Heartbeat CPU 0 instructions: 70000003 cycles: 88584161 heartbeat IPC: 0.743782 cumulative IPC: 0.781339 (Simulation time: 0 hr 9 min 35 sec) 
Heartbeat CPU 0 instructions: 80000002 cycles: 102767155 heartbeat IPC: 0.70507 cumulative IPC: 0.770784 (Simulation time: 0 hr 11 min 2 sec) 
Heartbeat CPU 0 instructions: 90000004 cycles: 115216386 heartbeat IPC: 0.803263 cumulative IPC: 0.774302 (Simulation time: 0 hr 12 min 22 sec) 
Heartbeat CPU 0 instructions: 100000003 cycles: 125136408 heartbeat IPC: 1.00806 cumulative IPC: 0.792874 (Simulation time: 0 hr 13 min 31 sec) 
Heartbeat CPU 0 instructions: 110000002 cycles: 136768734 heartbeat IPC: 0.859673 cumulative IPC: 0.798567 (Simulation time: 0 hr 14 min 43 sec) 
Heartbeat CPU 0 instructions: 120000004 cycles: 148862185 heartbeat IPC: 0.826894 cumulative IPC: 0.800872 (Simulation time: 0 hr 16 min 1 sec) 
Heartbeat CPU 0 instructions: 130000002 cycles: 159482026 heartbeat IPC: 0.941634 cumulative IPC: 0.810262 (Simulation time: 0 hr 17 min 13 sec) 
Heartbeat CPU 0 instructions: 140000000 cycles: 168064516 heartbeat IPC: 1.16516 cumulative IPC: 0.828415 (Simulation time: 0 hr 18 min 17 sec) 
Heartbeat CPU 0 instructions: 150000002 cycles: 177070237 heartbeat IPC: 1.11041 cumulative IPC: 0.842779 (Simulation time: 0 hr 19 min 23 sec) 
Heartbeat CPU 0 instructions: 160000003 cycles: 185495599 heartbeat IPC: 1.18689 cumulative IPC: 0.858432 (Simulation time: 0 hr 20 min 29 sec) 
Heartbeat CPU 0 instructions: 170000000 cycles: 193468800 heartbeat IPC: 1.2542 cumulative IPC: 0.874766 (Simulation time: 0 hr 21 min 34 sec) 
Heartbeat CPU 0 instructions: 180000000 cycles: 203491312 heartbeat IPC: 0.997754 cumulative IPC: 0.880831 (Simulation time: 0 hr 22 min 47 sec) 
Heartbeat CPU 0 instructions: 190000004 cycles: 216181809 heartbeat IPC: 0.787992 cumulative IPC: 0.875374 (Simulation time: 0 hr 24 min 14 sec) 
Heartbeat CPU 0 instructions: 200000004 cycles: 229738602 heartbeat IPC: 0.737638 cumulative IPC: 0.867237 (Simulation time: 0 hr 25 min 44 sec) 
Heartbeat CPU 0 instructions: 210000002 cycles: 243280254 heartbeat IPC: 0.738462 cumulative IPC: 0.860061 (Simulation time: 0 hr 27 min 13 sec) 
Heartbeat CPU 0 instructions: 220000002 cycles: 257524788 heartbeat IPC: 0.702024 cumulative IPC: 0.85131 (Simulation time: 0 hr 28 min 44 sec) 
Heartbeat CPU 0 instructions: 230000001 cycles: 271105717 heartbeat IPC: 0.736327 cumulative IPC: 0.845544 (Simulation time: 0 hr 30 min 15 sec) 
Heartbeat CPU 0 instructions: 240000004 cycles: 286819055 heartbeat IPC: 0.636402 cumulative IPC: 0.834075 (Simulation time: 0 hr 31 min 53 sec) 
Heartbeat CPU 0 instructions: 250000000 cycles: 302851228 heartbeat IPC: 0.623746 cumulative IPC: 0.822931 (Simulation time: 0 hr 33 min 34 sec) 
Heartbeat CPU 0 instructions: 260000003 cycles: 319032100 heartbeat IPC: 0.618014 cumulative IPC: 0.812529 (Simulation time: 0 hr 35 min 14 sec) 
Heartbeat CPU 0 instructions: 270000004 cycles: 333454237 heartbeat IPC: 0.693379 cumulative IPC: 0.807371 (Simulation time: 0 hr 36 min 47 sec) 
Heartbeat CPU 0 instructions: 280000001 cycles: 348390244 heartbeat IPC: 0.669523 cumulative IPC: 0.801457 (Simulation time: 0 hr 38 min 19 sec) 
Heartbeat CPU 0 instructions: 290000003 cycles: 361924002 heartbeat IPC: 0.738893 cumulative IPC: 0.799116 (Simulation time: 0 hr 39 min 49 sec) 
Heartbeat CPU 0 instructions: 300000000 cycles: 376532654 heartbeat IPC: 0.684526 cumulative IPC: 0.794666 (Simulation time: 0 hr 41 min 25 sec) 
Heartbeat CPU 0 instructions: 310000001 cycles: 389227586 heartbeat IPC: 0.787716 cumulative IPC: 0.79444 (Simulation time: 0 hr 42 min 48 sec) 
Heartbeat CPU 0 instructions: 320000000 cycles: 403414421 heartbeat IPC: 0.704879 cumulative IPC: 0.791288 (Simulation time: 0 hr 44 min 19 sec) 
Heartbeat CPU 0 instructions: 330000003 cycles: 419642800 heartbeat IPC: 0.616205 cumulative IPC: 0.784513 (Simulation time: 0 hr 45 min 54 sec) 
Heartbeat CPU 0 instructions: 340000004 cycles: 435677124 heartbeat IPC: 0.623662 cumulative IPC: 0.778589 (Simulation time: 0 hr 47 min 27 sec) 
Heartbeat CPU 0 instructions: 350000001 cycles: 450848596 heartbeat IPC: 0.659132 cumulative IPC: 0.774567 (Simulation time: 0 hr 49 min 5 sec) 
Heartbeat CPU 0 instructions: 360000001 cycles: 467457969 heartbeat IPC: 0.60207 cumulative IPC: 0.768434 (Simulation time: 0 hr 50 min 49 sec) 
Heartbeat CPU 0 instructions: 370000003 cycles: 482806193 heartbeat IPC: 0.651541 cumulative IPC: 0.764716 (Simulation time: 0 hr 52 min 25 sec) 
Heartbeat CPU 0 instructions: 380000002 cycles: 499280776 heartbeat IPC: 0.606996 cumulative IPC: 0.759509 (Simulation time: 0 hr 54 min 7 sec) 
Heartbeat CPU 0 instructions: 390000000 cycles: 513917526 heartbeat IPC: 0.683212 cumulative IPC: 0.757335 (Simulation time: 0 hr 55 min 41 sec) 
Heartbeat CPU 0 instructions: 400000000 cycles: 530316289 heartbeat IPC: 0.609802 cumulative IPC: 0.75277 (Simulation time: 0 hr 57 min 25 sec) 
Heartbeat CPU 0 instructions: 410000003 cycles: 546083544 heartbeat IPC: 0.634226 cumulative IPC: 0.749346 (Simulation time: 0 hr 59 min 6 sec) 
Heartbeat CPU 0 instructions: 420000000 cycles: 562112990 heartbeat IPC: 0.623852 cumulative IPC: 0.745766 (Simulation time: 1 hr 0 min 46 sec) 
Heartbeat CPU 0 instructions: 430000002 cycles: 577063048 heartbeat IPC: 0.668894 cumulative IPC: 0.743773 (Simulation time: 1 hr 2 min 22 sec) 
Heartbeat CPU 0 instructions: 440000002 cycles: 591220430 heartbeat IPC: 0.706345 cumulative IPC: 0.742876 (Simulation time: 1 hr 3 min 56 sec) 
Heartbeat CPU 0 instructions: 450000004 cycles: 604272152 heartbeat IPC: 0.766183 cumulative IPC: 0.74338 (Simulation time: 1 hr 5 min 25 sec) 
Heartbeat CPU 0 instructions: 460000002 cycles: 616861709 heartbeat IPC: 0.794309 cumulative IPC: 0.74442 (Simulation time: 1 hr 6 min 51 sec) 
Heartbeat CPU 0 instructions: 470000000 cycles: 630364476 heartbeat IPC: 0.740589 cumulative IPC: 0.744338 (Simulation time: 1 hr 8 min 20 sec) 
Heartbeat CPU 0 instructions: 480000000 cycles: 643124979 heartbeat IPC: 0.783668 cumulative IPC: 0.745118 (Simulation time: 1 hr 9 min 49 sec) 
Heartbeat CPU 0 instructions: 490000000 cycles: 656654637 heartbeat IPC: 0.739117 cumulative IPC: 0.744995 (Simulation time: 1 hr 11 min 19 sec) 
Heartbeat CPU 0 instructions: 500000000 cycles: 669511217 heartbeat IPC: 0.777812 cumulative IPC: 0.745625 (Simulation time: 1 hr 12 min 46 sec) 
Heartbeat CPU 0 instructions: 510000000 cycles: 682627433 heartbeat IPC: 0.762415 cumulative IPC: 0.745948 (Simulation time: 1 hr 14 min 13 sec) 
Heartbeat CPU 0 instructions: 520000004 cycles: 695308001 heartbeat IPC: 0.788609 cumulative IPC: 0.746726 (Simulation time: 1 hr 15 min 39 sec) 
Heartbeat CPU 0 instructions: 530000002 cycles: 707519736 heartbeat IPC: 0.818884 cumulative IPC: 0.747972 (Simulation time: 1 hr 17 min 3 sec) 
Heartbeat CPU 0 instructions: 540000000 cycles: 716277822 heartbeat IPC: 1.1418 cumulative IPC: 0.752789 (Simulation time: 1 hr 18 min 10 sec) 
Heartbeat CPU 0 instructions: 550000002 cycles: 724724365 heartbeat IPC: 1.18392 cumulative IPC: 0.757816 (Simulation time: 1 hr 19 min 19 sec) 
Heartbeat CPU 0 instructions: 560000000 cycles: 732523964 heartbeat IPC: 1.28212 cumulative IPC: 0.763401 (Simulation time: 1 hr 20 min 22 sec) 
Heartbeat CPU 0 instructions: 570000003 cycles: 740721341 heartbeat IPC: 1.2199 cumulative IPC: 0.768455 (Simulation time: 1 hr 21 min 28 sec) 
Heartbeat CPU 0 instructions: 580000001 cycles: 747837745 heartbeat IPC: 1.4052 cumulative IPC: 0.774516 (Simulation time: 1 hr 22 min 29 sec) 
Heartbeat CPU 0 instructions: 590000003 cycles: 755897338 heartbeat IPC: 1.24076 cumulative IPC: 0.779489 (Simulation time: 1 hr 23 min 35 sec) 
Heartbeat CPU 0 instructions: 600000002 cycles: 764912712 heartbeat IPC: 1.10922 cumulative IPC: 0.783377 (Simulation time: 1 hr 24 min 43 sec) 
Heartbeat CPU 0 instructions: 610000002 cycles: 776971850 heartbeat IPC: 0.829247 cumulative IPC: 0.784089 (Simulation time: 1 hr 26 min 8 sec) 
Heartbeat CPU 0 instructions: 620000001 cycles: 789441981 heartbeat IPC: 0.801916 cumulative IPC: 0.784371 (Simulation time: 1 hr 27 min 32 sec) 
Heartbeat CPU 0 instructions: 630000000 cycles: 804127325 heartbeat IPC: 0.680951 cumulative IPC: 0.782481 (Simulation time: 1 hr 29 min 4 sec) 
Heartbeat CPU 0 instructions: 640000002 cycles: 818028447 heartbeat IPC: 0.719367 cumulative IPC: 0.781408 (Simulation time: 1 hr 30 min 35 sec) 
Heartbeat CPU 0 instructions: 650000001 cycles: 829381938 heartbeat IPC: 0.880786 cumulative IPC: 0.782769 (Simulation time: 1 hr 31 min 53 sec) 
Heartbeat CPU 0 instructions: 660000000 cycles: 842436680 heartbeat IPC: 0.766005 cumulative IPC: 0.782509 (Simulation time: 1 hr 33 min 17 sec) 
Heartbeat CPU 0 instructions: 670000000 cycles: 854276059 heartbeat IPC: 0.844639 cumulative IPC: 0.783371 (Simulation time: 1 hr 34 min 37 sec) 
Heartbeat CPU 0 instructions: 680000003 cycles: 862972893 heartbeat IPC: 1.14984 cumulative IPC: 0.787065 (Simulation time: 1 hr 35 min 42 sec) 
Heartbeat CPU 0 instructions: 690000002 cycles: 870790291 heartbeat IPC: 1.2792 cumulative IPC: 0.791484 (Simulation time: 1 hr 36 min 41 sec) 
Heartbeat CPU 0 instructions: 700000000 cycles: 879602744 heartbeat IPC: 1.13476 cumulative IPC: 0.794925 (Simulation time: 1 hr 37 min 47 sec) 
Heartbeat CPU 0 instructions: 710000000 cycles: 891020561 heartbeat IPC: 0.875824 cumulative IPC: 0.795962 (Simulation time: 1 hr 39 min 6 sec) 
Heartbeat CPU 0 instructions: 720000003 cycles: 904004870 heartbeat IPC: 0.770161 cumulative IPC: 0.795591 (Simulation time: 1 hr 40 min 32 sec) 
Heartbeat CPU 0 instructions: 730000002 cycles: 917735886 heartbeat IPC: 0.728278 cumulative IPC: 0.794584 (Simulation time: 1 hr 41 min 59 sec) 
Heartbeat CPU 0 instructions: 740000004 cycles: 932895772 heartbeat IPC: 0.659636 cumulative IPC: 0.79239 (Simulation time: 1 hr 43 min 34 sec) 
Heartbeat CPU 0 instructions: 750000000 cycles: 947315957 heartbeat IPC: 0.693472 cumulative IPC: 0.790884 (Simulation time: 1 hr 45 min 2 sec) 
Heartbeat CPU 0 instructions: 760000002 cycles: 963376624 heartbeat IPC: 0.622639 cumulative IPC: 0.788078 (Simulation time: 1 hr 46 min 38 sec) 
Heartbeat CPU 0 instructions: 770000000 cycles: 979909181 heartbeat IPC: 0.604867 cumulative IPC: 0.784986 (Simulation time: 1 hr 48 min 14 sec) 
Heartbeat CPU 0 instructions: 780000001 cycles: 995714492 heartbeat IPC: 0.632699 cumulative IPC: 0.782568 (Simulation time: 1 hr 49 min 46 sec) 
Heartbeat CPU 0 instructions: 790000001 cycles: 1014755082 heartbeat IPC: 0.525194 cumulative IPC: 0.777738 (Simulation time: 1 hr 51 min 33 sec) 
Heartbeat CPU 0 instructions: 800000001 cycles: 1032047444 heartbeat IPC: 0.57829 cumulative IPC: 0.774395 (Simulation time: 1 hr 53 min 8 sec) 
Heartbeat CPU 0 instructions: 810000004 cycles: 1049721918 heartbeat IPC: 0.565788 cumulative IPC: 0.770882 (Simulation time: 1 hr 54 min 44 sec) 
Heartbeat CPU 0 instructions: 820000003 cycles: 1066431728 heartbeat IPC: 0.598451 cumulative IPC: 0.768179 (Simulation time: 1 hr 56 min 16 sec) 
Heartbeat CPU 0 instructions: 830000003 cycles: 1083444038 heartbeat IPC: 0.58781 cumulative IPC: 0.765346 (Simulation time: 1 hr 57 min 45 sec) 
Heartbeat CPU 0 instructions: 840000000 cycles: 1097226607 heartbeat IPC: 0.725554 cumulative IPC: 0.764846 (Simulation time: 1 hr 59 min 1 sec) 
Heartbeat CPU 0 instructions: 850000004 cycles: 1113356937 heartbeat IPC: 0.61995 cumulative IPC: 0.762747 (Simulation time: 2 hr 0 min 24 sec) 
Heartbeat CPU 0 instructions: 860000003 cycles: 1129133555 heartbeat IPC: 0.633849 cumulative IPC: 0.760945 (Simulation time: 2 hr 1 min 48 sec) 
Heartbeat CPU 0 instructions: 870000003 cycles: 1143921703 heartbeat IPC: 0.676217 cumulative IPC: 0.759849 (Simulation time: 2 hr 3 min 8 sec) 
Heartbeat CPU 0 instructions: 880000001 cycles: 1156696067 heartbeat IPC: 0.782818 cumulative IPC: 0.760103 (Simulation time: 2 hr 4 min 17 sec) 
Heartbeat CPU 0 instructions: 890000001 cycles: 1167645028 heartbeat IPC: 0.913329 cumulative IPC: 0.76154 (Simulation time: 2 hr 5 min 27 sec) 
Heartbeat CPU 0 instructions: 900000000 cycles: 1180836229 heartbeat IPC: 0.758081 cumulative IPC: 0.761502 (Simulation time: 2 hr 6 min 42 sec) 
Heartbeat CPU 0 instructions: 910000000 cycles: 1193279152 heartbeat IPC: 0.80367 cumulative IPC: 0.761941 (Simulation time: 2 hr 7 min 53 sec) 
Heartbeat CPU 0 instructions: 920000000 cycles: 1205978275 heartbeat IPC: 0.787456 cumulative IPC: 0.76221 (Simulation time: 2 hr 9 min 3 sec) 
Heartbeat CPU 0 instructions: 930000001 cycles: 1217891255 heartbeat IPC: 0.839421 cumulative IPC: 0.762966 (Simulation time: 2 hr 10 min 11 sec) 
Heartbeat CPU 0 instructions: 940000003 cycles: 1232077675 heartbeat IPC: 0.7049 cumulative IPC: 0.762297 (Simulation time: 2 hr 11 min 28 sec) 
Heartbeat CPU 0 instructions: 950000002 cycles: 1246274858 heartbeat IPC: 0.704365 cumulative IPC: 0.761637 (Simulation time: 2 hr 12 min 46 sec) 
Heartbeat CPU 0 instructions: 960000002 cycles: 1260872141 heartbeat IPC: 0.685059 cumulative IPC: 0.76075 (Simulation time: 2 hr 14 min 4 sec) 
Heartbeat CPU 0 instructions: 970000004 cycles: 1273566946 heartbeat IPC: 0.787724 cumulative IPC: 0.761019 (Simulation time: 2 hr 15 min 18 sec) 
Heartbeat CPU 0 instructions: 980000004 cycles: 1286155887 heartbeat IPC: 0.794348 cumulative IPC: 0.761345 (Simulation time: 2 hr 16 min 35 sec) 
Heartbeat CPU 0 instructions: 990000004 cycles: 1300347607 heartbeat IPC: 0.704636 cumulative IPC: 0.760726 (Simulation time: 2 hr 17 min 50 sec) 
Heartbeat CPU 0 instructions: 1000000000 cycles: 1315320173 heartbeat IPC: 0.667888 cumulative IPC: 0.759669 (Simulation time: 2 hr 19 min 5 sec) 
Finished CPU 0 instructions: 1000000003 cycles: 1316141909 cumulative IPC: 0.759796 (Simulation time: 2 hr 19 min 12 sec) 

ChampSim completed all CPUs

Region of Interest Statistics

CPU 0 cumulative IPC: 0.759796 instructions: 1000000003 cycles: 1316141909
cpu0_DTLB TOTAL     ACCESS:  184049575  HIT:  182760667  MISS:    1288908
cpu0_DTLB LOAD      ACCESS:  172394426  HIT:  171175293  MISS:    1219133
cpu0_DTLB RFO       ACCESS:   11655149  HIT:   11585374  MISS:      69775
cpu0_DTLB PREFETCH  ACCESS:          0  HIT:          0  MISS:          0
cpu0_DTLB WRITEBACK ACCESS:          0  HIT:          0  MISS:          0
cpu0_DTLB TRANSLATION ACCESS:          0  HIT:          0  MISS:          0
cpu0_DTLB PREFETCH  REQUESTED:          0  ISSUED:          0  USEFUL:          0  USELESS:          0
cpu0_DTLB AVERAGE MISS LATENCY: 12.232 cycles
cpu0_ITLB TOTAL     ACCESS:   59857660  HIT:   59857616  MISS:         44
cpu0_ITLB LOAD      ACCESS:   59857660  HIT:   59857616  MISS:         44
cpu0_ITLB RFO       ACCESS:          0  HIT:          0  MISS:          0
cpu0_ITLB PREFETCH  ACCESS:          0  HIT:          0  MISS:          0
cpu0_ITLB WRITEBACK ACCESS:          0  HIT:          0  MISS:          0
cpu0_ITLB TRANSLATION ACCESS:          0  HIT:          0  MISS:          0
cpu0_ITLB PREFETCH  REQUESTED:          0  ISSUED:          0  USEFUL:          0  USELESS:          0
cpu0_ITLB AVERAGE MISS LATENCY: 199.114 cycles
cpu0_L1I TOTAL     ACCESS:    2315583  HIT:    2313454  MISS:       2129
cpu0_L1I LOAD      ACCESS:    2315583  HIT:    2313454  MISS:       2129
cpu0_L1I RFO       ACCESS:          0  HIT:          0  MISS:          0
cpu0_L1I PREFETCH  ACCESS:          0  HIT:          0  MISS:          0
cpu0_L1I WRITEBACK ACCESS:          0  HIT:          0  MISS:          0
cpu0_L1I TRANSLATION ACCESS:          0  HIT:          0  MISS:          0
cpu0_L1I PREFETCH  REQUESTED:          0  ISSUED:          0  USEFUL:          0  USELESS:          0
cpu0_L1I AVERAGE MISS LATENCY: 370.26 cycles
cpu0_STLB TOTAL     ACCESS:    1288952  HIT:     897701  MISS:     391251
cpu0_STLB LOAD      ACCESS:    1219177  HIT:     838067  MISS:     381110
cpu0_STLB RFO       ACCESS:      69775  HIT:      59634  MISS:      10141
cpu0_STLB PREFETCH  ACCESS:          0  HIT:          0  MISS:          0
cpu0_STLB WRITEBACK ACCESS:          0  HIT:          0  MISS:          0
cpu0_STLB TRANSLATION ACCESS:          0  HIT:          0  MISS:          0
cpu0_STLB PREFETCH  REQUESTED:          0  ISSUED:          0  USEFUL:          0  USELESS:          0
cpu0_STLB AVERAGE MISS LATENCY: 10.5309 cycles
cpu0_L1D TOTAL     ACCESS:  277191611  HIT:  258570254  MISS:   18621357
cpu0_L1D LOAD      ACCESS:  152730211  HIT:  144456774  MISS:    8273437
cpu0_L1D RFO       ACCESS:   16965516  HIT:   15733180  MISS:    1232336
cpu0_L1D PREFETCH  ACCESS:  107128345  HIT:   98032655  MISS:    9095690
cpu0_L1D WRITEBACK ACCESS:          0  HIT:          0  MISS:          0
cpu0_L1D TRANSLATION ACCESS:     367539  HIT:     347645  MISS:      19894
cpu0_L1D PREFETCH  REQUESTED:  167172681  ISSUED:  159844903  USEFUL:   11334016  USELESS:    2044543
cpu0_L1D AVERAGE MISS LATENCY: 128.875 cycles
cpu0_L2C TOTAL     ACCESS:   22676103  HIT:    7701280  MISS:   14974823
cpu0_L2C LOAD      ACCESS:    3993028  HIT:    1750531  MISS:    2242497
cpu0_L2C RFO       ACCESS:    1231653  HIT:     138508  MISS:    1093145
cpu0_L2C PREFETCH  ACCESS:   15854466  HIT:    4224201  MISS:   11630265
cpu0_L2C WRITEBACK ACCESS:    1577062  HIT:    1572763  MISS:       4299
cpu0_L2C TRANSLATION ACCESS:      19894  HIT:      15277  MISS:       4617
cpu0_L2C PREFETCH  REQUESTED:    2579856  ISSUED:    2565178  USEFUL:     163070  USELESS:     120398
cpu0_L2C AVERAGE MISS LATENCY: 277.182 cycles
LLC TOTAL     ACCESS:   16361305  HIT:    8500042  MISS:    7861263
LLC LOAD      ACCESS:    2242443  HIT:    1553928  MISS:     688515
LLC RFO       ACCESS:    1093145  HIT:     854896  MISS:     238249
LLC PREFETCH  ACCESS:   11638093  HIT:    4757881  MISS:    6880212
LLC WRITEBACK ACCESS:    1383007  HIT:    1329430  MISS:      53577
LLC TRANSLATION ACCESS:       4617  HIT:       3907  MISS:        710
LLC PREFETCH  REQUESTED:          0  ISSUED:          0  USEFUL:          0  USELESS:          0
LLC AVERAGE MISS LATENCY: 477.282 cycles
OPTgen accesses: 54729
OPTgen hits: 52956
OPTgen hit rate: 96.7604



DRAM Statistics
 CHANNEL 0
 RQ ROW_BUFFER_HIT:     465395  ROW_BUFFER_MISS:    7330232
 DBUS AVG_CONGESTED_CYCLE:    3.90393
 WQ ROW_BUFFER_HIT:      43910  ROW_BUFFER_MISS:     324327  FULL:          0


CPU 0 Branch Prediction Accuracy: 95.7035% MPKI: 3.87839 Average ROB Occupancy at Mispredict: 88.6444
Branch type MPKI
BRANCH_DIRECT_JUMP: 0.000137
BRANCH_INDIRECT: 9.3e-05
BRANCH_CONDITIONAL: 3.87768
BRANCH_DIRECT_CALL: 0.000211
BRANCH_INDIRECT_CALL: 8.1e-05
BRANCH_RETURN: 0.000197

