
*** ChampSim Multicore Out-of-Order Simulator ***

Warmup Instructions: 1000000
Simulation Instructions: 1000000000
Number of CPUs: 1
Off-chip DRAM Size: 4 GiB Channels: 1 Width: 64-bit Data Rate: 3200 MT/s

VirtualMemory physical capacity: 8588881920 num_ppages: 2096895
VirtualMemory page size: 4096 log2_page_size: 12

CPU 0 runs tracer/pin/traces/spec2k6/433.milc-127B.champsimtrace.xz
Basic BTB sets: 1024 ways: 8 indirect buffer size: 4096 RAS size: 64
cpu0_L1D next line prefetcher
cpu0_L2C IP-based stride prefetcher
Initialize Hawkeye state
WARNING: The extended signature CACHE::prefetch_line(ip, base_addr, pf_addr, fill_this_level, prefetch_metadata) is deprecated.
WARNING: Use CACHE::prefetch_line(pf_addr, fill_this_level, prefetch_metadata) instead.

Warmup complete CPU 0 instructions: 1000004 cycles: 265826 (Simulation time: 0 hr 0 min 2 sec) 

Heartbeat CPU 0 instructions: 10000004 cycles: 35088895 heartbeat IPC: 0.284991 cumulative IPC: 0.258449 (Simulation time: 0 hr 2 min 20 sec) 
Heartbeat CPU 0 instructions: 20000004 cycles: 73217473 heartbeat IPC: 0.26227 cumulative IPC: 0.260446 (Simulation time: 0 hr 4 min 42 sec) 
Heartbeat CPU 0 instructions: 30000002 cycles: 118891839 heartbeat IPC: 0.218941 cumulative IPC: 0.244466 (Simulation time: 0 hr 7 min 40 sec) 
Heartbeat CPU 0 instructions: 40000001 cycles: 141719855 heartbeat IPC: 0.438058 cumulative IPC: 0.275708 (Simulation time: 0 hr 9 min 12 sec) 
Heartbeat CPU 0 instructions: 50000000 cycles: 165249451 heartbeat IPC: 0.424997 cumulative IPC: 0.296999 (Simulation time: 0 hr 10 min 31 sec) 
Heartbeat CPU 0 instructions: 60000004 cycles: 188744701 heartbeat IPC: 0.425618 cumulative IPC: 0.313032 (Simulation time: 0 hr 11 min 48 sec) 
Heartbeat CPU 0 instructions: 70000004 cycles: 211982618 heartbeat IPC: 0.430331 cumulative IPC: 0.325907 (Simulation time: 0 hr 13 min 5 sec) 
Heartbeat CPU 0 instructions: 80000002 cycles: 235256879 heartbeat IPC: 0.429659 cumulative IPC: 0.336183 (Simulation time: 0 hr 14 min 30 sec) 
Heartbeat CPU 0 instructions: 90000004 cycles: 258568606 heartbeat IPC: 0.428969 cumulative IPC: 0.344557 (Simulation time: 0 hr 16 min 3 sec) 
Heartbeat CPU 0 instructions: 100000003 cycles: 312372548 heartbeat IPC: 0.18586 cumulative IPC: 0.317199 (Simulation time: 0 hr 18 min 38 sec) 
Heartbeat CPU 0 instructions: 110000003 cycles: 351172324 heartbeat IPC: 0.257733 cumulative IPC: 0.310624 (Simulation time: 0 hr 21 min 44 sec) 
Heartbeat CPU 0 instructions: 120000000 cycles: 389140511 heartbeat IPC: 0.263378 cumulative IPC: 0.306011 (Simulation time: 0 hr 24 min 33 sec) 
Heartbeat CPU 0 instructions: 130000004 cycles: 425965503 heartbeat IPC: 0.271555 cumulative IPC: 0.303031 (Simulation time: 0 hr 27 min 0 sec) 
Heartbeat CPU 0 instructions: 140000001 cycles: 467917541 heartbeat IPC: 0.238367 cumulative IPC: 0.29723 (Simulation time: 0 hr 29 min 43 sec) 
Heartbeat CPU 0 instructions: 150000004 cycles: 508812768 heartbeat IPC: 0.244527 cumulative IPC: 0.292992 (Simulation time: 0 hr 32 min 22 sec) 
Heartbeat CPU 0 instructions: 160000000 cycles: 533267331 heartbeat IPC: 0.408921 cumulative IPC: 0.298311 (Simulation time: 0 hr 34 min 0 sec) 
Heartbeat CPU 0 instructions: 170000004 cycles: 554095266 heartbeat IPC: 0.480125 cumulative IPC: 0.305148 (Simulation time: 0 hr 35 min 21 sec) 
Heartbeat CPU 0 instructions: 180000001 cycles: 574915437 heartbeat IPC: 0.480303 cumulative IPC: 0.311494 (Simulation time: 0 hr 36 min 41 sec) 
Heartbeat CPU 0 instructions: 190000004 cycles: 595545599 heartbeat IPC: 0.484727 cumulative IPC: 0.317498 (Simulation time: 0 hr 38 min 4 sec) 
Heartbeat CPU 0 instructions: 200000000 cycles: 615992939 heartbeat IPC: 0.489061 cumulative IPC: 0.323195 (Simulation time: 0 hr 39 min 32 sec) 
Heartbeat CPU 0 instructions: 210000002 cycles: 636424266 heartbeat IPC: 0.489445 cumulative IPC: 0.328535 (Simulation time: 0 hr 41 min 3 sec) 
Heartbeat CPU 0 instructions: 220000000 cycles: 656890909 heartbeat IPC: 0.4886 cumulative IPC: 0.333524 (Simulation time: 0 hr 42 min 43 sec) 
Heartbeat CPU 0 instructions: 230000000 cycles: 700397730 heartbeat IPC: 0.229849 cumulative IPC: 0.327081 (Simulation time: 0 hr 47 min 16 sec) 
Heartbeat CPU 0 instructions: 240000001 cycles: 746796981 heartbeat IPC: 0.215521 cumulative IPC: 0.320147 (Simulation time: 0 hr 51 min 10 sec) 
Heartbeat CPU 0 instructions: 250000003 cycles: 800700712 heartbeat IPC: 0.185516 cumulative IPC: 0.311081 (Simulation time: 0 hr 56 min 17 sec) 
Heartbeat CPU 0 instructions: 260000003 cycles: 840953478 heartbeat IPC: 0.24843 cumulative IPC: 0.308081 (Simulation time: 0 hr 59 min 41 sec) 
Heartbeat CPU 0 instructions: 270000002 cycles: 879018472 heartbeat IPC: 0.262709 cumulative IPC: 0.306116 (Simulation time: 1 hr 2 min 23 sec) 
Heartbeat CPU 0 instructions: 280000000 cycles: 911176677 heartbeat IPC: 0.310963 cumulative IPC: 0.306287 (Simulation time: 1 hr 4 min 37 sec) 
Heartbeat CPU 0 instructions: 290000000 cycles: 933680870 heartbeat IPC: 0.444362 cumulative IPC: 0.309616 (Simulation time: 1 hr 6 min 11 sec) 
Heartbeat CPU 0 instructions: 300000001 cycles: 956228943 heartbeat IPC: 0.443497 cumulative IPC: 0.312774 (Simulation time: 1 hr 7 min 41 sec) 
Heartbeat CPU 0 instructions: 310000004 cycles: 978780691 heartbeat IPC: 0.443425 cumulative IPC: 0.315785 (Simulation time: 1 hr 9 min 11 sec) 
Heartbeat CPU 0 instructions: 320000003 cycles: 1001111315 heartbeat IPC: 0.447815 cumulative IPC: 0.318731 (Simulation time: 1 hr 10 min 40 sec) 
Heartbeat CPU 0 instructions: 330000004 cycles: 1023533498 heartbeat IPC: 0.445987 cumulative IPC: 0.321519 (Simulation time: 1 hr 12 min 11 sec) 
Heartbeat CPU 0 instructions: 340000004 cycles: 1046001275 heartbeat IPC: 0.445082 cumulative IPC: 0.324174 (Simulation time: 1 hr 13 min 39 sec) 
Heartbeat CPU 0 instructions: 350000001 cycles: 1071778140 heartbeat IPC: 0.387945 cumulative IPC: 0.325708 (Simulation time: 1 hr 15 min 35 sec) 
Heartbeat CPU 0 instructions: 360000000 cycles: 1105933839 heartbeat IPC: 0.292777 cumulative IPC: 0.324691 (Simulation time: 1 hr 18 min 8 sec) 
Heartbeat CPU 0 instructions: 370000001 cycles: 1140069338 heartbeat IPC: 0.29295 cumulative IPC: 0.32374 (Simulation time: 1 hr 20 min 38 sec) 
Heartbeat CPU 0 instructions: 380000001 cycles: 1165103468 heartbeat IPC: 0.399455 cumulative IPC: 0.325367 (Simulation time: 1 hr 22 min 8 sec) 
Heartbeat CPU 0 instructions: 390000001 cycles: 1188707442 heartbeat IPC: 0.423657 cumulative IPC: 0.327319 (Simulation time: 1 hr 23 min 34 sec) 
Heartbeat CPU 0 instructions: 400000001 cycles: 1212289357 heartbeat IPC: 0.424054 cumulative IPC: 0.329202 (Simulation time: 1 hr 24 min 58 sec) 
Heartbeat CPU 0 instructions: 410000003 cycles: 1235745590 heartbeat IPC: 0.426326 cumulative IPC: 0.331045 (Simulation time: 1 hr 26 min 20 sec) 
Heartbeat CPU 0 instructions: 420000003 cycles: 1259059256 heartbeat IPC: 0.428933 cumulative IPC: 0.332858 (Simulation time: 1 hr 27 min 44 sec) 
Heartbeat CPU 0 instructions: 430000003 cycles: 1282393711 heartbeat IPC: 0.428551 cumulative IPC: 0.3346 (Simulation time: 1 hr 29 min 9 sec) 
Heartbeat CPU 0 instructions: 440000001 cycles: 1305738606 heartbeat IPC: 0.428359 cumulative IPC: 0.336277 (Simulation time: 1 hr 30 min 31 sec) 
Heartbeat CPU 0 instructions: 450000000 cycles: 1366536199 heartbeat IPC: 0.16448 cumulative IPC: 0.328632 (Simulation time: 1 hr 32 min 47 sec) 
Heartbeat CPU 0 instructions: 460000000 cycles: 1400864356 heartbeat IPC: 0.291306 cumulative IPC: 0.327717 (Simulation time: 1 hr 34 min 39 sec) 
Heartbeat CPU 0 instructions: 470000000 cycles: 1435130430 heartbeat IPC: 0.291834 cumulative IPC: 0.32686 (Simulation time: 1 hr 36 min 29 sec) 
Heartbeat CPU 0 instructions: 480000004 cycles: 1468499171 heartbeat IPC: 0.299682 cumulative IPC: 0.326242 (Simulation time: 1 hr 38 min 16 sec) 
Heartbeat CPU 0 instructions: 490000002 cycles: 1506541906 heartbeat IPC: 0.262862 cumulative IPC: 0.324642 (Simulation time: 1 hr 40 min 1 sec) 
Heartbeat CPU 0 instructions: 500000000 cycles: 1543546617 heartbeat IPC: 0.270236 cumulative IPC: 0.323337 (Simulation time: 1 hr 41 min 43 sec) 
Heartbeat CPU 0 instructions: 510000000 cycles: 1566163518 heartbeat IPC: 0.442147 cumulative IPC: 0.325053 (Simulation time: 1 hr 42 min 49 sec) 
Heartbeat CPU 0 instructions: 520000003 cycles: 1588701951 heartbeat IPC: 0.443687 cumulative IPC: 0.326736 (Simulation time: 1 hr 43 min 54 sec) 
Heartbeat CPU 0 instructions: 530000000 cycles: 1611255193 heartbeat IPC: 0.443395 cumulative IPC: 0.32837 (Simulation time: 1 hr 44 min 58 sec) 
Heartbeat CPU 0 instructions: 540000001 cycles: 1633595516 heartbeat IPC: 0.447621 cumulative IPC: 0.330001 (Simulation time: 1 hr 46 min 3 sec) 
Heartbeat CPU 0 instructions: 550000003 cycles: 1655979925 heartbeat IPC: 0.44674 cumulative IPC: 0.331579 (Simulation time: 1 hr 47 min 8 sec) 
Heartbeat CPU 0 instructions: 560000000 cycles: 1678441259 heartbeat IPC: 0.445209 cumulative IPC: 0.3331 (Simulation time: 1 hr 48 min 13 sec) 
Heartbeat CPU 0 instructions: 570000000 cycles: 1707303955 heartbeat IPC: 0.346468 cumulative IPC: 0.333326 (Simulation time: 1 hr 49 min 53 sec) 
Heartbeat CPU 0 instructions: 580000004 cycles: 1752138050 heartbeat IPC: 0.223045 cumulative IPC: 0.330504 (Simulation time: 1 hr 52 min 11 sec) 
Heartbeat CPU 0 instructions: 590000000 cycles: 1797329181 heartbeat IPC: 0.221282 cumulative IPC: 0.327757 (Simulation time: 1 hr 54 min 24 sec) 
Heartbeat CPU 0 instructions: 600000000 cycles: 1850496454 heartbeat IPC: 0.188086 cumulative IPC: 0.323743 (Simulation time: 1 hr 57 min 18 sec) 
Heartbeat CPU 0 instructions: 610000003 cycles: 1875099489 heartbeat IPC: 0.406454 cumulative IPC: 0.324829 (Simulation time: 1 hr 58 min 26 sec) 
Heartbeat CPU 0 instructions: 620000000 cycles: 1899654992 heartbeat IPC: 0.407241 cumulative IPC: 0.325894 (Simulation time: 1 hr 59 min 33 sec) 
Heartbeat CPU 0 instructions: 630000004 cycles: 1924210625 heartbeat IPC: 0.407239 cumulative IPC: 0.326932 (Simulation time: 2 hr 0 min 41 sec) 
Heartbeat CPU 0 instructions: 640000001 cycles: 1948806715 heartbeat IPC: 0.406569 cumulative IPC: 0.327938 (Simulation time: 2 hr 1 min 49 sec) 
Heartbeat CPU 0 instructions: 650000001 cycles: 1973468555 heartbeat IPC: 0.405485 cumulative IPC: 0.328907 (Simulation time: 2 hr 2 min 58 sec) 
Heartbeat CPU 0 instructions: 660000001 cycles: 1998176054 heartbeat IPC: 0.404735 cumulative IPC: 0.329845 (Simulation time: 2 hr 4 min 7 sec) 
Heartbeat CPU 0 instructions: 670000000 cycles: 2033858061 heartbeat IPC: 0.280253 cumulative IPC: 0.328975 (Simulation time: 2 hr 5 min 30 sec) 
Heartbeat CPU 0 instructions: 680000002 cycles: 2096982637 heartbeat IPC: 0.158417 cumulative IPC: 0.32384 (Simulation time: 2 hr 8 min 14 sec) 
Heartbeat CPU 0 instructions: 690000002 cycles: 2134929198 heartbeat IPC: 0.263528 cumulative IPC: 0.322768 (Simulation time: 2 hr 10 min 8 sec) 
Heartbeat CPU 0 instructions: 700000001 cycles: 2172497791 heartbeat IPC: 0.26618 cumulative IPC: 0.321789 (Simulation time: 2 hr 12 min 1 sec) 
Heartbeat CPU 0 instructions: 710000004 cycles: 2224398939 heartbeat IPC: 0.192674 cumulative IPC: 0.318776 (Simulation time: 2 hr 14 min 51 sec) 
Heartbeat CPU 0 instructions: 720000002 cycles: 2245407791 heartbeat IPC: 0.47599 cumulative IPC: 0.320247 (Simulation time: 2 hr 15 min 52 sec) 
Heartbeat CPU 0 instructions: 730000000 cycles: 2266455760 heartbeat IPC: 0.475105 cumulative IPC: 0.321685 (Simulation time: 2 hr 16 min 53 sec) 
Heartbeat CPU 0 instructions: 740000003 cycles: 2287476313 heartbeat IPC: 0.475725 cumulative IPC: 0.323101 (Simulation time: 2 hr 17 min 54 sec) 
Heartbeat CPU 0 instructions: 750000000 cycles: 2308211450 heartbeat IPC: 0.482273 cumulative IPC: 0.324531 (Simulation time: 2 hr 18 min 56 sec) 
Heartbeat CPU 0 instructions: 760000004 cycles: 2328960481 heartbeat IPC: 0.48195 cumulative IPC: 0.325934 (Simulation time: 2 hr 19 min 58 sec) 
Heartbeat CPU 0 instructions: 770000000 cycles: 2349728213 heartbeat IPC: 0.481516 cumulative IPC: 0.327309 (Simulation time: 2 hr 21 min 0 sec) 
Heartbeat CPU 0 instructions: 780000004 cycles: 2401184861 heartbeat IPC: 0.194338 cumulative IPC: 0.324459 (Simulation time: 2 hr 22 min 44 sec) 
Heartbeat CPU 0 instructions: 790000001 cycles: 2447184322 heartbeat IPC: 0.217394 cumulative IPC: 0.322446 (Simulation time: 2 hr 25 min 11 sec) 
Heartbeat CPU 0 instructions: 800000001 cycles: 2488423236 heartbeat IPC: 0.242489 cumulative IPC: 0.321121 (Simulation time: 2 hr 27 min 12 sec) 
Heartbeat CPU 0 instructions: 810000002 cycles: 2545866345 heartbeat IPC: 0.174085 cumulative IPC: 0.317803 (Simulation time: 2 hr 30 min 18 sec) 
Heartbeat CPU 0 instructions: 820000004 cycles: 2587001870 heartbeat IPC: 0.243099 cumulative IPC: 0.316615 (Simulation time: 2 hr 32 min 14 sec) 
Heartbeat CPU 0 instructions: 830000000 cycles: 2628436200 heartbeat IPC: 0.241346 cumulative IPC: 0.315429 (Simulation time: 2 hr 34 min 1 sec) 
Heartbeat CPU 0 instructions: 840000000 cycles: 2661470343 heartbeat IPC: 0.302717 cumulative IPC: 0.315271 (Simulation time: 2 hr 35 min 30 sec) 
Heartbeat CPU 0 instructions: 850000000 cycles: 2682081605 heartbeat IPC: 0.485172 cumulative IPC: 0.316577 (Simulation time: 2 hr 36 min 30 sec) 
Heartbeat CPU 0 instructions: 860000004 cycles: 2702702832 heartbeat IPC: 0.484937 cumulative IPC: 0.317861 (Simulation time: 2 hr 37 min 30 sec) 
Heartbeat CPU 0 instructions: 870000002 cycles: 2723323210 heartbeat IPC: 0.484957 cumulative IPC: 0.319127 (Simulation time: 2 hr 38 min 31 sec) 
Heartbeat CPU 0 instructions: 880000003 cycles: 2743586718 heartbeat IPC: 0.493498 cumulative IPC: 0.320415 (Simulation time: 2 hr 39 min 31 sec) 
Heartbeat CPU 0 instructions: 890000002 cycles: 2763846996 heartbeat IPC: 0.493577 cumulative IPC: 0.321684 (Simulation time: 2 hr 40 min 32 sec) 
Heartbeat CPU 0 instructions: 900000000 cycles: 2784124358 heartbeat IPC: 0.493161 cumulative IPC: 0.322933 (Simulation time: 2 hr 41 min 33 sec) 
Heartbeat CPU 0 instructions: 910000004 cycles: 2809008655 heartbeat IPC: 0.40186 cumulative IPC: 0.323632 (Simulation time: 2 hr 42 min 49 sec) 
Heartbeat CPU 0 instructions: 920000003 cycles: 2846915207 heartbeat IPC: 0.263807 cumulative IPC: 0.322836 (Simulation time: 2 hr 44 min 33 sec) 
Heartbeat CPU 0 instructions: 930000000 cycles: 2885151168 heartbeat IPC: 0.261534 cumulative IPC: 0.322023 (Simulation time: 2 hr 46 min 18 sec) 
Heartbeat CPU 0 instructions: 940000004 cycles: 2907702764 heartbeat IPC: 0.443428 cumulative IPC: 0.322965 (Simulation time: 2 hr 47 min 24 sec) 
Heartbeat CPU 0 instructions: 950000002 cycles: 2928548482 heartbeat IPC: 0.479715 cumulative IPC: 0.324081 (Simulation time: 2 hr 48 min 25 sec) 
Heartbeat CPU 0 instructions: 960000001 cycles: 2949316683 heartbeat IPC: 0.481505 cumulative IPC: 0.325189 (Simulation time: 2 hr 49 min 26 sec) 
Heartbeat CPU 0 instructions: 970000000 cycles: 2970141536 heartbeat IPC: 0.480195 cumulative IPC: 0.326276 (Simulation time: 2 hr 50 min 28 sec) 
Heartbeat CPU 0 instructions: 980000002 cycles: 2990960522 heartbeat IPC: 0.480331 cumulative IPC: 0.327349 (Simulation time: 2 hr 51 min 31 sec) 
Heartbeat CPU 0 instructions: 990000001 cycles: 3011775084 heartbeat IPC: 0.480433 cumulative IPC: 0.328407 (Simulation time: 2 hr 52 min 33 sec) 
Heartbeat CPU 0 instructions: 1000000001 cycles: 3032587263 heartbeat IPC: 0.480488 cumulative IPC: 0.329451 (Simulation time: 2 hr 53 min 36 sec) 
Finished CPU 0 instructions: 1000000004 cycles: 3035952703 cumulative IPC: 0.329386 (Simulation time: 2 hr 53 min 44 sec) 

ChampSim completed all CPUs

Region of Interest Statistics

CPU 0 cumulative IPC: 0.329386 instructions: 1000000004 cycles: 3035952703
cpu0_DTLB TOTAL     ACCESS:  175643687  HIT:  173765793  MISS:    1877894
cpu0_DTLB LOAD      ACCESS:  122668133  HIT:  120835194  MISS:    1832939
cpu0_DTLB RFO       ACCESS:   52975554  HIT:   52930599  MISS:      44955
cpu0_DTLB PREFETCH  ACCESS:          0  HIT:          0  MISS:          0
cpu0_DTLB WRITEBACK ACCESS:          0  HIT:          0  MISS:          0
cpu0_DTLB TRANSLATION ACCESS:          0  HIT:          0  MISS:          0
cpu0_DTLB PREFETCH  REQUESTED:          0  ISSUED:          0  USEFUL:          0  USELESS:          0
cpu0_DTLB AVERAGE MISS LATENCY: 27.4732 cycles
cpu0_ITLB TOTAL     ACCESS:   97329433  HIT:   97329425  MISS:          8
cpu0_ITLB LOAD      ACCESS:   97329433  HIT:   97329425  MISS:          8
cpu0_ITLB RFO       ACCESS:          0  HIT:          0  MISS:          0
cpu0_ITLB PREFETCH  ACCESS:          0  HIT:          0  MISS:          0
cpu0_ITLB WRITEBACK ACCESS:          0  HIT:          0  MISS:          0
cpu0_ITLB TRANSLATION ACCESS:          0  HIT:          0  MISS:          0
cpu0_ITLB PREFETCH  REQUESTED:          0  ISSUED:          0  USEFUL:          0  USELESS:          0
cpu0_ITLB AVERAGE MISS LATENCY: 415.375 cycles
cpu0_L1I TOTAL     ACCESS:       2774  HIT:       2672  MISS:        102
cpu0_L1I LOAD      ACCESS:       2774  HIT:       2672  MISS:        102
cpu0_L1I RFO       ACCESS:          0  HIT:          0  MISS:          0
cpu0_L1I PREFETCH  ACCESS:          0  HIT:          0  MISS:          0
cpu0_L1I WRITEBACK ACCESS:          0  HIT:          0  MISS:          0
cpu0_L1I TRANSLATION ACCESS:          0  HIT:          0  MISS:          0
cpu0_L1I PREFETCH  REQUESTED:          0  ISSUED:          0  USEFUL:          0  USELESS:          0
cpu0_L1I AVERAGE MISS LATENCY: 514.49 cycles
cpu0_STLB TOTAL     ACCESS:    1877902  HIT:       1733  MISS:    1876169
cpu0_STLB LOAD      ACCESS:    1832947  HIT:       1524  MISS:    1831423
cpu0_STLB RFO       ACCESS:      44955  HIT:        209  MISS:      44746
cpu0_STLB PREFETCH  ACCESS:          0  HIT:          0  MISS:          0
cpu0_STLB WRITEBACK ACCESS:          0  HIT:          0  MISS:          0
cpu0_STLB TRANSLATION ACCESS:          0  HIT:          0  MISS:          0
cpu0_STLB PREFETCH  REQUESTED:          0  ISSUED:          0  USEFUL:          0  USELESS:          0
cpu0_STLB AVERAGE MISS LATENCY: 18.4913 cycles
cpu0_L1D TOTAL     ACCESS:  312060423  HIT:  288025992  MISS:   24034431
cpu0_L1D LOAD      ACCESS:  114131184  HIT:  101675433  MISS:   12455751
cpu0_L1D RFO       ACCESS:  110625240  HIT:  107750122  MISS:    2875118
cpu0_L1D PREFETCH  ACCESS:   85427837  HIT:   76750539  MISS:    8677298
cpu0_L1D WRITEBACK ACCESS:          0  HIT:          0  MISS:          0
cpu0_L1D TRANSLATION ACCESS:    1876162  HIT:    1849898  MISS:      26264
cpu0_L1D PREFETCH  REQUESTED:  126959338  ISSUED:  123987198  USEFUL:    8875092  USELESS:    4958694
cpu0_L1D AVERAGE MISS LATENCY: 515.128 cycles
cpu0_L2C TOTAL     ACCESS:   31867279  HIT:    6884355  MISS:   24982924
cpu0_L2C LOAD      ACCESS:    7299372  HIT:         34  MISS:    7299338
cpu0_L2C RFO       ACCESS:    2875109  HIT:          4  MISS:    2875105
cpu0_L2C PREFETCH  ACCESS:   15425665  HIT:     622412  MISS:   14803253
cpu0_L2C WRITEBACK ACCESS:    6240869  HIT:    6240759  MISS:        110
cpu0_L2C TRANSLATION ACCESS:      26264  HIT:      21146  MISS:       5118
cpu0_L2C PREFETCH  REQUESTED:    1811715  ISSUED:    1796950  USEFUL:      59906  USELESS:     909650
cpu0_L2C AVERAGE MISS LATENCY: 637.651 cycles
LLC TOTAL     ACCESS:   31373553  HIT:    1614484  MISS:   29759069
LLC LOAD      ACCESS:    7299338  HIT:      24207  MISS:    7275131
LLC RFO       ACCESS:    2875105  HIT:     144121  MISS:    2730984
LLC PREFETCH  ACCESS:   14953329  HIT:     146926  MISS:   14806403
LLC WRITEBACK ACCESS:    6240663  HIT:    1296435  MISS:    4944228
LLC TRANSLATION ACCESS:       5118  HIT:       2795  MISS:       2323
LLC PREFETCH  REQUESTED:          0  ISSUED:          0  USEFUL:          0  USELESS:          0
LLC AVERAGE MISS LATENCY: 517.239 cycles
OPTgen accesses: 153770
OPTgen hits: 3526
OPTgen hit rate: 2.29304



DRAM Statistics
 CHANNEL 0
 RQ ROW_BUFFER_HIT:    5541718  ROW_BUFFER_MISS:   19272877
 DBUS AVG_CONGESTED_CYCLE:    3.93713
 WQ ROW_BUFFER_HIT:     328031  ROW_BUFFER_MISS:    5811064  FULL:      67987


CPU 0 Branch Prediction Accuracy: 79.4606% MPKI: 14.2146 Average ROB Occupancy at Mispredict: 60.7874
Branch type MPKI
BRANCH_DIRECT_JUMP: 1.7e-05
BRANCH_INDIRECT: 0
BRANCH_CONDITIONAL: 14.2145
BRANCH_DIRECT_CALL: 3.2e-05
BRANCH_INDIRECT_CALL: 0
BRANCH_RETURN: 3.2e-05

