
*** ChampSim Multicore Out-of-Order Simulator ***

Warmup Instructions: 1000000
Simulation Instructions: 1000000000
Number of CPUs: 1
Off-chip DRAM Size: 4 GiB Channels: 1 Width: 64-bit Data Rate: 3200 MT/s

VirtualMemory physical capacity: 8588881920 num_ppages: 2096895
VirtualMemory page size: 4096 log2_page_size: 12

CPU 0 runs tracer/pin/traces/spec2k17/649.fotonik3d_s-1176B.champsimtrace.xz
Basic BTB sets: 1024 ways: 8 indirect buffer size: 4096 RAS size: 64
cpu0_L1D next line prefetcher
cpu0_L2C IP-based stride prefetcher
Initialize Hawkeye state
WARNING: The extended signature CACHE::prefetch_line(ip, base_addr, pf_addr, fill_this_level, prefetch_metadata) is deprecated.
WARNING: Use CACHE::prefetch_line(pf_addr, fill_this_level, prefetch_metadata) instead.

Warmup complete CPU 0 instructions: 1000003 cycles: 350910 (Simulation time: 0 hr 0 min 4 sec) 

Heartbeat CPU 0 instructions: 10000004 cycles: 15701159 heartbeat IPC: 0.636896 cumulative IPC: 0.58631 (Simulation time: 0 hr 1 min 35 sec) 
Heartbeat CPU 0 instructions: 20000004 cycles: 35142447 heartbeat IPC: 0.514369 cumulative IPC: 0.54611 (Simulation time: 0 hr 3 min 30 sec) 
Heartbeat CPU 0 instructions: 30000003 cycles: 54586645 heartbeat IPC: 0.514292 cumulative IPC: 0.534703 (Simulation time: 0 hr 5 min 36 sec) 
Heartbeat CPU 0 instructions: 40000002 cycles: 74052130 heartbeat IPC: 0.51373 cumulative IPC: 0.529164 (Simulation time: 0 hr 7 min 38 sec) 
Heartbeat CPU 0 instructions: 50000001 cycles: 93536858 heartbeat IPC: 0.513222 cumulative IPC: 0.52583 (Simulation time: 0 hr 9 min 40 sec) 
Heartbeat CPU 0 instructions: 60000004 cycles: 112993363 heartbeat IPC: 0.513967 cumulative IPC: 0.523781 (Simulation time: 0 hr 11 min 42 sec) 
Heartbeat CPU 0 instructions: 70000002 cycles: 132463706 heartbeat IPC: 0.513602 cumulative IPC: 0.522281 (Simulation time: 0 hr 13 min 40 sec) 
Heartbeat CPU 0 instructions: 80000000 cycles: 151962419 heartbeat IPC: 0.512854 cumulative IPC: 0.521069 (Simulation time: 0 hr 15 min 36 sec) 
Heartbeat CPU 0 instructions: 90000004 cycles: 171416431 heartbeat IPC: 0.514033 cumulative IPC: 0.520268 (Simulation time: 0 hr 17 min 32 sec) 
Heartbeat CPU 0 instructions: 100000003 cycles: 190899010 heartbeat IPC: 0.513279 cumulative IPC: 0.519554 (Simulation time: 0 hr 19 min 27 sec) 
Heartbeat CPU 0 instructions: 110000001 cycles: 210366903 heartbeat IPC: 0.513666 cumulative IPC: 0.519008 (Simulation time: 0 hr 21 min 19 sec) 
Heartbeat CPU 0 instructions: 120000002 cycles: 229852429 heartbeat IPC: 0.513201 cumulative IPC: 0.518515 (Simulation time: 0 hr 23 min 5 sec) 
Heartbeat CPU 0 instructions: 130000000 cycles: 249351704 heartbeat IPC: 0.512839 cumulative IPC: 0.518071 (Simulation time: 0 hr 24 min 51 sec) 
Heartbeat CPU 0 instructions: 140000000 cycles: 268842867 heartbeat IPC: 0.513053 cumulative IPC: 0.517706 (Simulation time: 0 hr 26 min 29 sec) 
Heartbeat CPU 0 instructions: 150000004 cycles: 288360840 heartbeat IPC: 0.512348 cumulative IPC: 0.517343 (Simulation time: 0 hr 28 min 6 sec) 
Heartbeat CPU 0 instructions: 160000001 cycles: 307855385 heartbeat IPC: 0.512964 cumulative IPC: 0.517066 (Simulation time: 0 hr 29 min 43 sec) 
Heartbeat CPU 0 instructions: 170000002 cycles: 327338879 heartbeat IPC: 0.513255 cumulative IPC: 0.516839 (Simulation time: 0 hr 31 min 18 sec) 
Heartbeat CPU 0 instructions: 180000001 cycles: 346847270 heartbeat IPC: 0.5126 cumulative IPC: 0.5166 (Simulation time: 0 hr 32 min 55 sec) 
Heartbeat CPU 0 instructions: 190000004 cycles: 366345113 heartbeat IPC: 0.512877 cumulative IPC: 0.516402 (Simulation time: 0 hr 34 min 32 sec) 
Heartbeat CPU 0 instructions: 200000002 cycles: 385879119 heartbeat IPC: 0.511928 cumulative IPC: 0.516175 (Simulation time: 0 hr 36 min 5 sec) 
Heartbeat CPU 0 instructions: 210000001 cycles: 405369623 heartbeat IPC: 0.51307 cumulative IPC: 0.516026 (Simulation time: 0 hr 37 min 39 sec) 
Heartbeat CPU 0 instructions: 220000002 cycles: 424873073 heartbeat IPC: 0.51273 cumulative IPC: 0.515874 (Simulation time: 0 hr 39 min 22 sec) 
Heartbeat CPU 0 instructions: 230000000 cycles: 444380822 heartbeat IPC: 0.512617 cumulative IPC: 0.515731 (Simulation time: 0 hr 41 min 2 sec) 
Heartbeat CPU 0 instructions: 240000004 cycles: 463881354 heartbeat IPC: 0.512807 cumulative IPC: 0.515608 (Simulation time: 0 hr 42 min 42 sec) 
Heartbeat CPU 0 instructions: 250000003 cycles: 483377552 heartbeat IPC: 0.51292 cumulative IPC: 0.5155 (Simulation time: 0 hr 44 min 19 sec) 
Heartbeat CPU 0 instructions: 260000003 cycles: 502875262 heartbeat IPC: 0.512881 cumulative IPC: 0.515398 (Simulation time: 0 hr 45 min 56 sec) 
Heartbeat CPU 0 instructions: 270000002 cycles: 520857771 heartbeat IPC: 0.556096 cumulative IPC: 0.516804 (Simulation time: 0 hr 47 min 29 sec) 
Heartbeat CPU 0 instructions: 280000000 cycles: 537746992 heartbeat IPC: 0.592094 cumulative IPC: 0.51917 (Simulation time: 0 hr 49 min 4 sec) 
Heartbeat CPU 0 instructions: 290000003 cycles: 557250731 heartbeat IPC: 0.512722 cumulative IPC: 0.518944 (Simulation time: 0 hr 50 min 36 sec) 
Heartbeat CPU 0 instructions: 300000001 cycles: 576758117 heartbeat IPC: 0.512626 cumulative IPC: 0.518731 (Simulation time: 0 hr 52 min 10 sec) 
Heartbeat CPU 0 instructions: 310000003 cycles: 596252354 heartbeat IPC: 0.512972 cumulative IPC: 0.518542 (Simulation time: 0 hr 53 min 46 sec) 
Heartbeat CPU 0 instructions: 320000003 cycles: 615771363 heartbeat IPC: 0.512321 cumulative IPC: 0.518345 (Simulation time: 0 hr 55 min 17 sec) 
Heartbeat CPU 0 instructions: 330000002 cycles: 635275927 heartbeat IPC: 0.5127 cumulative IPC: 0.518171 (Simulation time: 0 hr 56 min 48 sec) 
Heartbeat CPU 0 instructions: 340000001 cycles: 654779048 heartbeat IPC: 0.512738 cumulative IPC: 0.518009 (Simulation time: 0 hr 58 min 14 sec) 
Heartbeat CPU 0 instructions: 350000001 cycles: 674282844 heartbeat IPC: 0.512721 cumulative IPC: 0.517856 (Simulation time: 0 hr 59 min 47 sec) 
Heartbeat CPU 0 instructions: 360000000 cycles: 693781282 heartbeat IPC: 0.512862 cumulative IPC: 0.517716 (Simulation time: 1 hr 1 min 11 sec) 
Heartbeat CPU 0 instructions: 370000004 cycles: 713318940 heartbeat IPC: 0.511832 cumulative IPC: 0.517555 (Simulation time: 1 hr 2 min 43 sec) 
Heartbeat CPU 0 instructions: 380000003 cycles: 732826510 heartbeat IPC: 0.512621 cumulative IPC: 0.517423 (Simulation time: 1 hr 4 min 6 sec) 
Heartbeat CPU 0 instructions: 390000002 cycles: 752338427 heartbeat IPC: 0.512507 cumulative IPC: 0.517296 (Simulation time: 1 hr 5 min 30 sec) 
Heartbeat CPU 0 instructions: 400000001 cycles: 771844042 heartbeat IPC: 0.512673 cumulative IPC: 0.517179 (Simulation time: 1 hr 6 min 53 sec) 
Heartbeat CPU 0 instructions: 410000002 cycles: 791343027 heartbeat IPC: 0.512847 cumulative IPC: 0.517072 (Simulation time: 1 hr 8 min 14 sec) 
Heartbeat CPU 0 instructions: 420000000 cycles: 810836876 heartbeat IPC: 0.512982 cumulative IPC: 0.516974 (Simulation time: 1 hr 9 min 37 sec) 
Heartbeat CPU 0 instructions: 430000001 cycles: 830352050 heartbeat IPC: 0.512422 cumulative IPC: 0.516867 (Simulation time: 1 hr 10 min 59 sec) 
Heartbeat CPU 0 instructions: 440000004 cycles: 849869580 heartbeat IPC: 0.51236 cumulative IPC: 0.516763 (Simulation time: 1 hr 12 min 21 sec) 
Heartbeat CPU 0 instructions: 450000000 cycles: 869362984 heartbeat IPC: 0.512994 cumulative IPC: 0.516679 (Simulation time: 1 hr 13 min 40 sec) 
Heartbeat CPU 0 instructions: 460000004 cycles: 888862702 heartbeat IPC: 0.512828 cumulative IPC: 0.516594 (Simulation time: 1 hr 14 min 59 sec) 
Heartbeat CPU 0 instructions: 470000003 cycles: 908359291 heartbeat IPC: 0.51291 cumulative IPC: 0.516515 (Simulation time: 1 hr 16 min 18 sec) 
Heartbeat CPU 0 instructions: 480000002 cycles: 927867784 heartbeat IPC: 0.512597 cumulative IPC: 0.516433 (Simulation time: 1 hr 17 min 36 sec) 
Heartbeat CPU 0 instructions: 490000001 cycles: 947363237 heartbeat IPC: 0.51294 cumulative IPC: 0.516361 (Simulation time: 1 hr 18 min 55 sec) 
Heartbeat CPU 0 instructions: 500000000 cycles: 966891022 heartbeat IPC: 0.512091 cumulative IPC: 0.516275 (Simulation time: 1 hr 20 min 14 sec) 
Heartbeat CPU 0 instructions: 510000002 cycles: 986399478 heartbeat IPC: 0.512598 cumulative IPC: 0.516202 (Simulation time: 1 hr 21 min 33 sec) 
Heartbeat CPU 0 instructions: 520000000 cycles: 1005916088 heartbeat IPC: 0.512384 cumulative IPC: 0.516128 (Simulation time: 1 hr 22 min 51 sec) 
Heartbeat CPU 0 instructions: 530000004 cycles: 1025419187 heartbeat IPC: 0.512739 cumulative IPC: 0.516063 (Simulation time: 1 hr 24 min 10 sec) 
Heartbeat CPU 0 instructions: 540000003 cycles: 1044921371 heartbeat IPC: 0.512763 cumulative IPC: 0.516002 (Simulation time: 1 hr 25 min 29 sec) 
Heartbeat CPU 0 instructions: 550000003 cycles: 1064453693 heartbeat IPC: 0.511972 cumulative IPC: 0.515928 (Simulation time: 1 hr 26 min 48 sec) 
Heartbeat CPU 0 instructions: 560000002 cycles: 1083963179 heartbeat IPC: 0.512571 cumulative IPC: 0.515867 (Simulation time: 1 hr 28 min 7 sec) 
Heartbeat CPU 0 instructions: 570000000 cycles: 1103481866 heartbeat IPC: 0.512329 cumulative IPC: 0.515805 (Simulation time: 1 hr 29 min 25 sec) 
Heartbeat CPU 0 instructions: 580000001 cycles: 1122992483 heartbeat IPC: 0.512542 cumulative IPC: 0.515748 (Simulation time: 1 hr 30 min 44 sec) 
Heartbeat CPU 0 instructions: 590000000 cycles: 1142496388 heartbeat IPC: 0.512718 cumulative IPC: 0.515696 (Simulation time: 1 hr 32 min 3 sec) 
Heartbeat CPU 0 instructions: 600000004 cycles: 1161988607 heartbeat IPC: 0.513025 cumulative IPC: 0.515651 (Simulation time: 1 hr 33 min 22 sec) 
Heartbeat CPU 0 instructions: 610000003 cycles: 1181507391 heartbeat IPC: 0.512327 cumulative IPC: 0.515596 (Simulation time: 1 hr 34 min 41 sec) 
Heartbeat CPU 0 instructions: 620000001 cycles: 1201040179 heartbeat IPC: 0.51196 cumulative IPC: 0.515537 (Simulation time: 1 hr 36 min 0 sec) 
Heartbeat CPU 0 instructions: 630000004 cycles: 1220582009 heartbeat IPC: 0.511723 cumulative IPC: 0.515476 (Simulation time: 1 hr 37 min 19 sec) 
Heartbeat CPU 0 instructions: 640000002 cycles: 1240086284 heartbeat IPC: 0.512708 cumulative IPC: 0.515433 (Simulation time: 1 hr 38 min 37 sec) 
Heartbeat CPU 0 instructions: 650000001 cycles: 1259576120 heartbeat IPC: 0.513088 cumulative IPC: 0.515396 (Simulation time: 1 hr 39 min 56 sec) 
Heartbeat CPU 0 instructions: 660000000 cycles: 1279094586 heartbeat IPC: 0.512335 cumulative IPC: 0.51535 (Simulation time: 1 hr 41 min 15 sec) 
Heartbeat CPU 0 instructions: 670000000 cycles: 1298602032 heartbeat IPC: 0.512625 cumulative IPC: 0.515309 (Simulation time: 1 hr 42 min 34 sec) 
Heartbeat CPU 0 instructions: 680000004 cycles: 1318117519 heartbeat IPC: 0.512414 cumulative IPC: 0.515266 (Simulation time: 1 hr 43 min 52 sec) 
Heartbeat CPU 0 instructions: 690000003 cycles: 1337634956 heartbeat IPC: 0.512362 cumulative IPC: 0.515223 (Simulation time: 1 hr 45 min 11 sec) 
Heartbeat CPU 0 instructions: 700000002 cycles: 1357134904 heartbeat IPC: 0.512822 cumulative IPC: 0.515189 (Simulation time: 1 hr 46 min 30 sec) 
Heartbeat CPU 0 instructions: 710000002 cycles: 1376672862 heartbeat IPC: 0.511824 cumulative IPC: 0.515141 (Simulation time: 1 hr 47 min 49 sec) 
Heartbeat CPU 0 instructions: 720000001 cycles: 1396209046 heartbeat IPC: 0.511871 cumulative IPC: 0.515095 (Simulation time: 1 hr 49 min 8 sec) 
Heartbeat CPU 0 instructions: 730000004 cycles: 1415723623 heartbeat IPC: 0.512438 cumulative IPC: 0.515059 (Simulation time: 1 hr 50 min 27 sec) 
Heartbeat CPU 0 instructions: 740000003 cycles: 1435243815 heartbeat IPC: 0.51229 cumulative IPC: 0.515021 (Simulation time: 1 hr 51 min 45 sec) 
Heartbeat CPU 0 instructions: 750000003 cycles: 1454765497 heartbeat IPC: 0.512251 cumulative IPC: 0.514984 (Simulation time: 1 hr 53 min 4 sec) 
Heartbeat CPU 0 instructions: 760000004 cycles: 1474295925 heartbeat IPC: 0.512022 cumulative IPC: 0.514945 (Simulation time: 1 hr 54 min 23 sec) 
Heartbeat CPU 0 instructions: 770000003 cycles: 1493816875 heartbeat IPC: 0.51227 cumulative IPC: 0.51491 (Simulation time: 1 hr 55 min 42 sec) 
Heartbeat CPU 0 instructions: 780000004 cycles: 1513358018 heartbeat IPC: 0.511741 cumulative IPC: 0.514869 (Simulation time: 1 hr 57 min 1 sec) 
Heartbeat CPU 0 instructions: 790000002 cycles: 1532844578 heartbeat IPC: 0.513174 cumulative IPC: 0.514847 (Simulation time: 1 hr 58 min 19 sec) 
Heartbeat CPU 0 instructions: 800000001 cycles: 1552352604 heartbeat IPC: 0.512609 cumulative IPC: 0.514819 (Simulation time: 1 hr 59 min 38 sec) 
Heartbeat CPU 0 instructions: 810000000 cycles: 1571868754 heartbeat IPC: 0.512396 cumulative IPC: 0.514789 (Simulation time: 2 hr 0 min 57 sec) 
Heartbeat CPU 0 instructions: 820000004 cycles: 1591367665 heartbeat IPC: 0.512849 cumulative IPC: 0.514765 (Simulation time: 2 hr 2 min 16 sec) 
Heartbeat CPU 0 instructions: 830000002 cycles: 1610879172 heartbeat IPC: 0.512518 cumulative IPC: 0.514738 (Simulation time: 2 hr 3 min 35 sec) 
Heartbeat CPU 0 instructions: 840000002 cycles: 1630401474 heartbeat IPC: 0.512235 cumulative IPC: 0.514708 (Simulation time: 2 hr 4 min 54 sec) 
Heartbeat CPU 0 instructions: 850000001 cycles: 1649924326 heartbeat IPC: 0.51222 cumulative IPC: 0.514679 (Simulation time: 2 hr 6 min 13 sec) 
Heartbeat CPU 0 instructions: 860000002 cycles: 1669453775 heartbeat IPC: 0.512047 cumulative IPC: 0.514648 (Simulation time: 2 hr 7 min 31 sec) 
Heartbeat CPU 0 instructions: 870000000 cycles: 1688987952 heartbeat IPC: 0.511923 cumulative IPC: 0.514616 (Simulation time: 2 hr 8 min 50 sec) 
Heartbeat CPU 0 instructions: 880000001 cycles: 1708498264 heartbeat IPC: 0.51255 cumulative IPC: 0.514593 (Simulation time: 2 hr 10 min 9 sec) 
Heartbeat CPU 0 instructions: 890000003 cycles: 1728003511 heartbeat IPC: 0.512683 cumulative IPC: 0.514571 (Simulation time: 2 hr 11 min 28 sec) 
Heartbeat CPU 0 instructions: 900000003 cycles: 1747503024 heartbeat IPC: 0.512833 cumulative IPC: 0.514552 (Simulation time: 2 hr 12 min 47 sec) 
Heartbeat CPU 0 instructions: 910000004 cycles: 1767000030 heartbeat IPC: 0.512899 cumulative IPC: 0.514533 (Simulation time: 2 hr 14 min 6 sec) 
Heartbeat CPU 0 instructions: 920000003 cycles: 1786513872 heartbeat IPC: 0.512457 cumulative IPC: 0.514511 (Simulation time: 2 hr 15 min 25 sec) 
Heartbeat CPU 0 instructions: 930000000 cycles: 1806055703 heartbeat IPC: 0.511723 cumulative IPC: 0.514481 (Simulation time: 2 hr 16 min 44 sec) 
Heartbeat CPU 0 instructions: 940000000 cycles: 1825576789 heartbeat IPC: 0.512267 cumulative IPC: 0.514457 (Simulation time: 2 hr 18 min 3 sec) 
Heartbeat CPU 0 instructions: 950000004 cycles: 1845091883 heartbeat IPC: 0.512424 cumulative IPC: 0.514435 (Simulation time: 2 hr 19 min 22 sec) 
Heartbeat CPU 0 instructions: 960000002 cycles: 1864608008 heartbeat IPC: 0.512397 cumulative IPC: 0.514414 (Simulation time: 2 hr 20 min 41 sec) 
Heartbeat CPU 0 instructions: 970000003 cycles: 1884126826 heartbeat IPC: 0.512326 cumulative IPC: 0.514392 (Simulation time: 2 hr 21 min 59 sec) 
Heartbeat CPU 0 instructions: 980000001 cycles: 1903673728 heartbeat IPC: 0.51159 cumulative IPC: 0.514364 (Simulation time: 2 hr 23 min 18 sec) 
Heartbeat CPU 0 instructions: 990000004 cycles: 1923181319 heartbeat IPC: 0.512621 cumulative IPC: 0.514346 (Simulation time: 2 hr 24 min 37 sec) 
Heartbeat CPU 0 instructions: 1000000001 cycles: 1942710792 heartbeat IPC: 0.512046 cumulative IPC: 0.514323 (Simulation time: 2 hr 25 min 56 sec) 
Finished CPU 0 instructions: 1000000003 cycles: 1944309962 cumulative IPC: 0.514321 (Simulation time: 2 hr 26 min 4 sec) 

ChampSim completed all CPUs

Region of Interest Statistics

CPU 0 cumulative IPC: 0.514321 instructions: 1000000003 cycles: 1944309962
cpu0_DTLB TOTAL     ACCESS:  179305870  HIT:  179072228  MISS:     233642
cpu0_DTLB LOAD      ACCESS:  153405315  HIT:  153173877  MISS:     231438
cpu0_DTLB RFO       ACCESS:   25900555  HIT:   25898351  MISS:       2204
cpu0_DTLB PREFETCH  ACCESS:          0  HIT:          0  MISS:          0
cpu0_DTLB WRITEBACK ACCESS:          0  HIT:          0  MISS:          0
cpu0_DTLB TRANSLATION ACCESS:          0  HIT:          0  MISS:          0
cpu0_DTLB PREFETCH  REQUESTED:          0  ISSUED:          0  USEFUL:          0  USELESS:          0
cpu0_DTLB AVERAGE MISS LATENCY: 140.1 cycles
cpu0_ITLB TOTAL     ACCESS:     349306  HIT:     349295  MISS:         11
cpu0_ITLB LOAD      ACCESS:     349306  HIT:     349295  MISS:         11
cpu0_ITLB RFO       ACCESS:          0  HIT:          0  MISS:          0
cpu0_ITLB PREFETCH  ACCESS:          0  HIT:          0  MISS:          0
cpu0_ITLB WRITEBACK ACCESS:          0  HIT:          0  MISS:          0
cpu0_ITLB TRANSLATION ACCESS:          0  HIT:          0  MISS:          0
cpu0_ITLB PREFETCH  REQUESTED:          0  ISSUED:          0  USEFUL:          0  USELESS:          0
cpu0_ITLB AVERAGE MISS LATENCY: 216.091 cycles
cpu0_L1I TOTAL     ACCESS:     405913  HIT:     405636  MISS:        277
cpu0_L1I LOAD      ACCESS:     405913  HIT:     405636  MISS:        277
cpu0_L1I RFO       ACCESS:          0  HIT:          0  MISS:          0
cpu0_L1I PREFETCH  ACCESS:          0  HIT:          0  MISS:          0
cpu0_L1I WRITEBACK ACCESS:          0  HIT:          0  MISS:          0
cpu0_L1I TRANSLATION ACCESS:          0  HIT:          0  MISS:          0
cpu0_L1I PREFETCH  REQUESTED:          0  ISSUED:          0  USEFUL:          0  USELESS:          0
cpu0_L1I AVERAGE MISS LATENCY: 407.043 cycles
cpu0_STLB TOTAL     ACCESS:     233653  HIT:      96845  MISS:     136808
cpu0_STLB LOAD      ACCESS:     231449  HIT:      94641  MISS:     136808
cpu0_STLB RFO       ACCESS:       2204  HIT:       2204  MISS:          0
cpu0_STLB PREFETCH  ACCESS:          0  HIT:          0  MISS:          0
cpu0_STLB WRITEBACK ACCESS:          0  HIT:          0  MISS:          0
cpu0_STLB TRANSLATION ACCESS:          0  HIT:          0  MISS:          0
cpu0_STLB PREFETCH  REQUESTED:          0  ISSUED:          0  USEFUL:          0  USELESS:          0
cpu0_STLB AVERAGE MISS LATENCY: 223.881 cycles
cpu0_L1D TOTAL     ACCESS:  362436575  HIT:  348990652  MISS:   13445923
cpu0_L1D LOAD      ACCESS:  159017024  HIT:  152840023  MISS:    6177001
cpu0_L1D RFO       ACCESS:   70279865  HIT:   70264975  MISS:      14890
cpu0_L1D PREFETCH  ACCESS:  133002880  HIT:  125753485  MISS:    7249395
cpu0_L1D WRITEBACK ACCESS:          0  HIT:          0  MISS:          0
cpu0_L1D TRANSLATION ACCESS:     136806  HIT:     132169  MISS:       4637
cpu0_L1D PREFETCH  REQUESTED:  165788453  ISSUED:  160533367  USEFUL:   12957218  USELESS:     166647
cpu0_L1D AVERAGE MISS LATENCY: 128.613 cycles
cpu0_L2C TOTAL     ACCESS:   24207288  HIT:   10867325  MISS:   13339963
cpu0_L2C LOAD      ACCESS:     302805  HIT:      17089  MISS:     285716
cpu0_L2C RFO       ACCESS:      14890  HIT:       2000  MISS:      12890
cpu0_L2C PREFETCH  ACCESS:   15128315  HIT:    2091540  MISS:   13036775
cpu0_L2C WRITEBACK ACCESS:    8756641  HIT:    8756633  MISS:          8
cpu0_L2C TRANSLATION ACCESS:       4637  HIT:         63  MISS:       4574
cpu0_L2C PREFETCH  REQUESTED:    2005838  ISSUED:    2005838  USEFUL:     202663  USELESS:       4896
cpu0_L2C AVERAGE MISS LATENCY: 371.302 cycles
LLC TOTAL     ACCESS:   22091403  HIT:   12858421  MISS:    9232982
LLC LOAD      ACCESS:     285714  HIT:     119054  MISS:     166660
LLC RFO       ACCESS:      12890  HIT:      12884  MISS:          6
LLC PREFETCH  ACCESS:   13036836  HIT:    4118815  MISS:    8918021
LLC WRITEBACK ACCESS:    8751389  HIT:    8607111  MISS:     144278
LLC TRANSLATION ACCESS:       4574  HIT:        557  MISS:       4017
LLC PREFETCH  REQUESTED:          0  ISSUED:          0  USEFUL:          0  USELESS:          0
LLC AVERAGE MISS LATENCY: 497.455 cycles
OPTgen accesses: 8701
OPTgen hits: 39922
OPTgen hit rate: 458.821



DRAM Statistics
 CHANNEL 0
 RQ ROW_BUFFER_HIT:     299353  ROW_BUFFER_MISS:    8789348
 DBUS AVG_CONGESTED_CYCLE:    3.99434
 WQ ROW_BUFFER_HIT:     531977  ROW_BUFFER_MISS:    8183196  FULL:          0


CPU 0 Branch Prediction Accuracy: 99.865% MPKI: 0.024349 Average ROB Occupancy at Mispredict: 99.8272
Branch type MPKI
BRANCH_DIRECT_JUMP: 8.9e-05
BRANCH_INDIRECT: 0
BRANCH_CONDITIONAL: 0.024228
BRANCH_DIRECT_CALL: 1.6e-05
BRANCH_INDIRECT_CALL: 0
BRANCH_RETURN: 1.6e-05

