
*** ChampSim Multicore Out-of-Order Simulator ***

Warmup Instructions: 1000000
Simulation Instructions: 1000000000
Number of CPUs: 1
Off-chip DRAM Size: 4 GiB Channels: 1 Width: 64-bit Data Rate: 3200 MT/s

VirtualMemory physical capacity: 8588881920 num_ppages: 2096895
VirtualMemory page size: 4096 log2_page_size: 12

CPU 0 runs tracer/pin/traces/spec2k17/628.pop2_s-17B.champsimtrace.xz
Basic BTB sets: 1024 ways: 8 indirect buffer size: 4096 RAS size: 64
cpu0_L1D next line prefetcher
cpu0_L2C IP-based stride prefetcher
Initialize Hawkeye state
WARNING: The extended signature CACHE::prefetch_line(ip, base_addr, pf_addr, fill_this_level, prefetch_metadata) is deprecated.
WARNING: Use CACHE::prefetch_line(pf_addr, fill_this_level, prefetch_metadata) instead.

Warmup complete CPU 0 instructions: 1000004 cycles: 281420 (Simulation time: 0 hr 0 min 3 sec) 

Heartbeat CPU 0 instructions: 10000003 cycles: 6017315 heartbeat IPC: 1.66187 cumulative IPC: 1.56907 (Simulation time: 0 hr 0 min 46 sec) 
Heartbeat CPU 0 instructions: 20000004 cycles: 12815657 heartbeat IPC: 1.47095 cumulative IPC: 1.51585 (Simulation time: 0 hr 1 min 38 sec) 
Heartbeat CPU 0 instructions: 30000000 cycles: 19691479 heartbeat IPC: 1.45437 cumulative IPC: 1.49407 (Simulation time: 0 hr 2 min 31 sec) 
Heartbeat CPU 0 instructions: 40000002 cycles: 26628070 heartbeat IPC: 1.44163 cumulative IPC: 1.48026 (Simulation time: 0 hr 3 min 24 sec) 
Heartbeat CPU 0 instructions: 50000001 cycles: 33401563 heartbeat IPC: 1.47634 cumulative IPC: 1.47946 (Simulation time: 0 hr 4 min 16 sec) 
Heartbeat CPU 0 instructions: 60000002 cycles: 40318093 heartbeat IPC: 1.44581 cumulative IPC: 1.47365 (Simulation time: 0 hr 5 min 13 sec) 
Heartbeat CPU 0 instructions: 70000003 cycles: 46967277 heartbeat IPC: 1.50394 cumulative IPC: 1.47796 (Simulation time: 0 hr 6 min 8 sec) 
Heartbeat CPU 0 instructions: 80000001 cycles: 53226560 heartbeat IPC: 1.59763 cumulative IPC: 1.49211 (Simulation time: 0 hr 7 min 0 sec) 
Heartbeat CPU 0 instructions: 90000000 cycles: 60041901 heartbeat IPC: 1.46728 cumulative IPC: 1.48928 (Simulation time: 0 hr 7 min 54 sec) 
Heartbeat CPU 0 instructions: 100000003 cycles: 69006483 heartbeat IPC: 1.1155 cumulative IPC: 1.44052 (Simulation time: 0 hr 9 min 3 sec) 
Heartbeat CPU 0 instructions: 110000001 cycles: 81074573 heartbeat IPC: 0.828631 cumulative IPC: 1.34912 (Simulation time: 0 hr 10 min 25 sec) 
Heartbeat CPU 0 instructions: 120000000 cycles: 90218394 heartbeat IPC: 1.09363 cumulative IPC: 1.32315 (Simulation time: 0 hr 11 min 27 sec) 
Heartbeat CPU 0 instructions: 130000001 cycles: 98134939 heartbeat IPC: 1.26318 cumulative IPC: 1.3183 (Simulation time: 0 hr 12 min 22 sec) 
Heartbeat CPU 0 instructions: 140000004 cycles: 106776301 heartbeat IPC: 1.15723 cumulative IPC: 1.30523 (Simulation time: 0 hr 13 min 18 sec) 
Heartbeat CPU 0 instructions: 150000002 cycles: 112607913 heartbeat IPC: 1.71479 cumulative IPC: 1.32649 (Simulation time: 0 hr 13 min 58 sec) 
Heartbeat CPU 0 instructions: 160000002 cycles: 121269851 heartbeat IPC: 1.15448 cumulative IPC: 1.31418 (Simulation time: 0 hr 14 min 52 sec) 
Heartbeat CPU 0 instructions: 170000003 cycles: 127350801 heartbeat IPC: 1.64448 cumulative IPC: 1.32998 (Simulation time: 0 hr 15 min 40 sec) 
Heartbeat CPU 0 instructions: 180000003 cycles: 135031572 heartbeat IPC: 1.30195 cumulative IPC: 1.32838 (Simulation time: 0 hr 16 min 40 sec) 
Heartbeat CPU 0 instructions: 190000000 cycles: 142112089 heartbeat IPC: 1.41233 cumulative IPC: 1.33257 (Simulation time: 0 hr 17 min 40 sec) 
Heartbeat CPU 0 instructions: 200000003 cycles: 149204338 heartbeat IPC: 1.40999 cumulative IPC: 1.33626 (Simulation time: 0 hr 18 min 40 sec) 
Heartbeat CPU 0 instructions: 210000003 cycles: 156756778 heartbeat IPC: 1.32408 cumulative IPC: 1.33567 (Simulation time: 0 hr 19 min 42 sec) 
Heartbeat CPU 0 instructions: 220000004 cycles: 163838992 heartbeat IPC: 1.41199 cumulative IPC: 1.33898 (Simulation time: 0 hr 20 min 42 sec) 
Heartbeat CPU 0 instructions: 230000000 cycles: 170940832 heartbeat IPC: 1.40809 cumulative IPC: 1.34185 (Simulation time: 0 hr 21 min 40 sec) 
Heartbeat CPU 0 instructions: 240000000 cycles: 178049486 heartbeat IPC: 1.40674 cumulative IPC: 1.34445 (Simulation time: 0 hr 22 min 40 sec) 
Heartbeat CPU 0 instructions: 250000003 cycles: 184742693 heartbeat IPC: 1.49405 cumulative IPC: 1.34988 (Simulation time: 0 hr 23 min 37 sec) 
Heartbeat CPU 0 instructions: 260000002 cycles: 192123656 heartbeat IPC: 1.35484 cumulative IPC: 1.35007 (Simulation time: 0 hr 24 min 35 sec) 
Heartbeat CPU 0 instructions: 270000000 cycles: 198437393 heartbeat IPC: 1.58385 cumulative IPC: 1.35752 (Simulation time: 0 hr 25 min 28 sec) 
Heartbeat CPU 0 instructions: 280000003 cycles: 209117790 heartbeat IPC: 0.936295 cumulative IPC: 1.33597 (Simulation time: 0 hr 26 min 45 sec) 
Heartbeat CPU 0 instructions: 290000002 cycles: 219730059 heartbeat IPC: 0.942305 cumulative IPC: 1.31694 (Simulation time: 0 hr 28 min 0 sec) 
Heartbeat CPU 0 instructions: 300000001 cycles: 228717548 heartbeat IPC: 1.11266 cumulative IPC: 1.3089 (Simulation time: 0 hr 28 min 58 sec) 
Heartbeat CPU 0 instructions: 310000001 cycles: 236836472 heartbeat IPC: 1.23169 cumulative IPC: 1.30625 (Simulation time: 0 hr 29 min 55 sec) 
Heartbeat CPU 0 instructions: 320000004 cycles: 245274587 heartbeat IPC: 1.1851 cumulative IPC: 1.30208 (Simulation time: 0 hr 30 min 49 sec) 
Heartbeat CPU 0 instructions: 330000000 cycles: 253236272 heartbeat IPC: 1.25602 cumulative IPC: 1.30063 (Simulation time: 0 hr 31 min 40 sec) 
Heartbeat CPU 0 instructions: 340000001 cycles: 262143506 heartbeat IPC: 1.12268 cumulative IPC: 1.29457 (Simulation time: 0 hr 32 min 36 sec) 
Heartbeat CPU 0 instructions: 350000001 cycles: 267686076 heartbeat IPC: 1.80422 cumulative IPC: 1.30514 (Simulation time: 0 hr 33 min 21 sec) 
Heartbeat CPU 0 instructions: 360000003 cycles: 275434154 heartbeat IPC: 1.29064 cumulative IPC: 1.30473 (Simulation time: 0 hr 34 min 18 sec) 
Heartbeat CPU 0 instructions: 370000003 cycles: 282680248 heartbeat IPC: 1.38005 cumulative IPC: 1.30666 (Simulation time: 0 hr 35 min 19 sec) 
Heartbeat CPU 0 instructions: 380000004 cycles: 290008271 heartbeat IPC: 1.36462 cumulative IPC: 1.30813 (Simulation time: 0 hr 36 min 20 sec) 
Heartbeat CPU 0 instructions: 390000001 cycles: 296997019 heartbeat IPC: 1.43087 cumulative IPC: 1.31102 (Simulation time: 0 hr 37 min 20 sec) 
Heartbeat CPU 0 instructions: 400000000 cycles: 304000883 heartbeat IPC: 1.42778 cumulative IPC: 1.31371 (Simulation time: 0 hr 38 min 19 sec) 
Heartbeat CPU 0 instructions: 410000000 cycles: 311186096 heartbeat IPC: 1.39175 cumulative IPC: 1.31552 (Simulation time: 0 hr 39 min 19 sec) 
Heartbeat CPU 0 instructions: 420000001 cycles: 318181299 heartbeat IPC: 1.42955 cumulative IPC: 1.31802 (Simulation time: 0 hr 40 min 17 sec) 
Heartbeat CPU 0 instructions: 430000004 cycles: 325138290 heartbeat IPC: 1.4374 cumulative IPC: 1.32058 (Simulation time: 0 hr 41 min 17 sec) 
Heartbeat CPU 0 instructions: 440000001 cycles: 331417478 heartbeat IPC: 1.59256 cumulative IPC: 1.32574 (Simulation time: 0 hr 42 min 11 sec) 
Heartbeat CPU 0 instructions: 450000002 cycles: 339112270 heartbeat IPC: 1.29958 cumulative IPC: 1.32515 (Simulation time: 0 hr 43 min 11 sec) 
Heartbeat CPU 0 instructions: 460000003 cycles: 347610405 heartbeat IPC: 1.17673 cumulative IPC: 1.32151 (Simulation time: 0 hr 44 min 17 sec) 
Heartbeat CPU 0 instructions: 470000000 cycles: 359883959 heartbeat IPC: 0.81476 cumulative IPC: 1.30422 (Simulation time: 0 hr 45 min 41 sec) 
Heartbeat CPU 0 instructions: 480000002 cycles: 370260846 heartbeat IPC: 0.96368 cumulative IPC: 1.29467 (Simulation time: 0 hr 46 min 53 sec) 
Heartbeat CPU 0 instructions: 490000001 cycles: 375860281 heartbeat IPC: 1.78589 cumulative IPC: 1.30199 (Simulation time: 0 hr 47 min 36 sec) 
Heartbeat CPU 0 instructions: 500000004 cycles: 387121266 heartbeat IPC: 0.888022 cumulative IPC: 1.28994 (Simulation time: 0 hr 48 min 44 sec) 
Heartbeat CPU 0 instructions: 510000002 cycles: 393549944 heartbeat IPC: 1.55553 cumulative IPC: 1.29428 (Simulation time: 0 hr 49 min 27 sec) 
Heartbeat CPU 0 instructions: 520000002 cycles: 404246908 heartbeat IPC: 0.934845 cumulative IPC: 1.28476 (Simulation time: 0 hr 50 min 34 sec) 
Heartbeat CPU 0 instructions: 530000002 cycles: 409573332 heartbeat IPC: 1.87743 cumulative IPC: 1.29248 (Simulation time: 0 hr 51 min 15 sec) 
Heartbeat CPU 0 instructions: 540000000 cycles: 416916381 heartbeat IPC: 1.36183 cumulative IPC: 1.2937 (Simulation time: 0 hr 52 min 13 sec) 
Heartbeat CPU 0 instructions: 550000000 cycles: 424713818 heartbeat IPC: 1.28247 cumulative IPC: 1.29349 (Simulation time: 0 hr 53 min 18 sec) 
Heartbeat CPU 0 instructions: 560000004 cycles: 431743088 heartbeat IPC: 1.42262 cumulative IPC: 1.2956 (Simulation time: 0 hr 54 min 20 sec) 
Heartbeat CPU 0 instructions: 570000001 cycles: 438665193 heartbeat IPC: 1.44465 cumulative IPC: 1.29795 (Simulation time: 0 hr 55 min 21 sec) 
Heartbeat CPU 0 instructions: 580000002 cycles: 445531934 heartbeat IPC: 1.4563 cumulative IPC: 1.30039 (Simulation time: 0 hr 56 min 21 sec) 
Heartbeat CPU 0 instructions: 590000002 cycles: 452479955 heartbeat IPC: 1.43926 cumulative IPC: 1.30253 (Simulation time: 0 hr 57 min 20 sec) 
Heartbeat CPU 0 instructions: 600000002 cycles: 459442245 heartbeat IPC: 1.43631 cumulative IPC: 1.30455 (Simulation time: 0 hr 58 min 21 sec) 
Heartbeat CPU 0 instructions: 610000001 cycles: 466509660 heartbeat IPC: 1.41494 cumulative IPC: 1.30623 (Simulation time: 0 hr 59 min 19 sec) 
Heartbeat CPU 0 instructions: 620000002 cycles: 471709193 heartbeat IPC: 1.92325 cumulative IPC: 1.31303 (Simulation time: 1 hr 0 min 8 sec) 
Heartbeat CPU 0 instructions: 630000001 cycles: 480963262 heartbeat IPC: 1.08061 cumulative IPC: 1.30856 (Simulation time: 1 hr 1 min 16 sec) 
Heartbeat CPU 0 instructions: 640000001 cycles: 486957308 heartbeat IPC: 1.66832 cumulative IPC: 1.31299 (Simulation time: 1 hr 2 min 8 sec) 
Heartbeat CPU 0 instructions: 650000001 cycles: 500580623 heartbeat IPC: 0.734036 cumulative IPC: 1.29722 (Simulation time: 1 hr 3 min 40 sec) 
Heartbeat CPU 0 instructions: 660000003 cycles: 511665886 heartbeat IPC: 0.902099 cumulative IPC: 1.28866 (Simulation time: 1 hr 5 min 0 sec) 
Heartbeat CPU 0 instructions: 670000003 cycles: 517211099 heartbeat IPC: 1.80336 cumulative IPC: 1.29418 (Simulation time: 1 hr 5 min 43 sec) 
Heartbeat CPU 0 instructions: 680000004 cycles: 528261641 heartbeat IPC: 0.904933 cumulative IPC: 1.28603 (Simulation time: 1 hr 6 min 52 sec) 
Heartbeat CPU 0 instructions: 690000000 cycles: 532495438 heartbeat IPC: 2.36195 cumulative IPC: 1.29459 (Simulation time: 1 hr 7 min 24 sec) 
Heartbeat CPU 0 instructions: 700000001 cycles: 540330144 heartbeat IPC: 1.27637 cumulative IPC: 1.29433 (Simulation time: 1 hr 8 min 16 sec) 
Heartbeat CPU 0 instructions: 710000002 cycles: 548939581 heartbeat IPC: 1.16152 cumulative IPC: 1.29224 (Simulation time: 1 hr 9 min 12 sec) 
Heartbeat CPU 0 instructions: 720000002 cycles: 554684039 heartbeat IPC: 1.74081 cumulative IPC: 1.29689 (Simulation time: 1 hr 10 min 1 sec) 
Heartbeat CPU 0 instructions: 730000004 cycles: 563221279 heartbeat IPC: 1.17134 cumulative IPC: 1.29499 (Simulation time: 1 hr 11 min 6 sec) 
Heartbeat CPU 0 instructions: 740000000 cycles: 570124382 heartbeat IPC: 1.44862 cumulative IPC: 1.29685 (Simulation time: 1 hr 12 min 7 sec) 
Heartbeat CPU 0 instructions: 750000002 cycles: 577265640 heartbeat IPC: 1.40031 cumulative IPC: 1.29813 (Simulation time: 1 hr 13 min 8 sec) 
Heartbeat CPU 0 instructions: 760000000 cycles: 584276288 heartbeat IPC: 1.4264 cumulative IPC: 1.29967 (Simulation time: 1 hr 14 min 9 sec) 
Heartbeat CPU 0 instructions: 770000001 cycles: 591319895 heartbeat IPC: 1.41973 cumulative IPC: 1.3011 (Simulation time: 1 hr 15 min 8 sec) 
Heartbeat CPU 0 instructions: 780000003 cycles: 598553645 heartbeat IPC: 1.38241 cumulative IPC: 1.30208 (Simulation time: 1 hr 16 min 7 sec) 
Heartbeat CPU 0 instructions: 790000000 cycles: 605667125 heartbeat IPC: 1.40578 cumulative IPC: 1.3033 (Simulation time: 1 hr 17 min 5 sec) 
Heartbeat CPU 0 instructions: 800000004 cycles: 611660596 heartbeat IPC: 1.66848 cumulative IPC: 1.30688 (Simulation time: 1 hr 17 min 56 sec) 
Heartbeat CPU 0 instructions: 810000001 cycles: 620209405 heartbeat IPC: 1.16975 cumulative IPC: 1.30499 (Simulation time: 1 hr 18 min 57 sec) 
Heartbeat CPU 0 instructions: 820000002 cycles: 625800419 heartbeat IPC: 1.78858 cumulative IPC: 1.30931 (Simulation time: 1 hr 19 min 44 sec) 
Heartbeat CPU 0 instructions: 830000002 cycles: 637698356 heartbeat IPC: 0.840482 cumulative IPC: 1.30056 (Simulation time: 1 hr 21 min 3 sec) 
Heartbeat CPU 0 instructions: 840000001 cycles: 647287815 heartbeat IPC: 1.04281 cumulative IPC: 1.29674 (Simulation time: 1 hr 22 min 9 sec) 
Heartbeat CPU 0 instructions: 850000002 cycles: 655646855 heartbeat IPC: 1.19631 cumulative IPC: 1.29546 (Simulation time: 1 hr 23 min 0 sec) 
Heartbeat CPU 0 instructions: 860000000 cycles: 663870223 heartbeat IPC: 1.21605 cumulative IPC: 1.29448 (Simulation time: 1 hr 23 min 53 sec) 
Heartbeat CPU 0 instructions: 870000002 cycles: 671887531 heartbeat IPC: 1.2473 cumulative IPC: 1.29391 (Simulation time: 1 hr 24 min 39 sec) 
Heartbeat CPU 0 instructions: 880000000 cycles: 680026677 heartbeat IPC: 1.22863 cumulative IPC: 1.29313 (Simulation time: 1 hr 25 min 30 sec) 
Heartbeat CPU 0 instructions: 890000001 cycles: 688531397 heartbeat IPC: 1.17582 cumulative IPC: 1.29168 (Simulation time: 1 hr 26 min 19 sec) 
Heartbeat CPU 0 instructions: 900000000 cycles: 693875322 heartbeat IPC: 1.87128 cumulative IPC: 1.29615 (Simulation time: 1 hr 27 min 0 sec) 
Heartbeat CPU 0 instructions: 910000000 cycles: 701662696 heartbeat IPC: 1.28413 cumulative IPC: 1.29601 (Simulation time: 1 hr 27 min 54 sec) 
Heartbeat CPU 0 instructions: 920000004 cycles: 708693406 heartbeat IPC: 1.42233 cumulative IPC: 1.29727 (Simulation time: 1 hr 28 min 52 sec) 
Heartbeat CPU 0 instructions: 930000000 cycles: 715776038 heartbeat IPC: 1.4119 cumulative IPC: 1.2984 (Simulation time: 1 hr 29 min 47 sec) 
Heartbeat CPU 0 instructions: 940000002 cycles: 722754443 heartbeat IPC: 1.43299 cumulative IPC: 1.2997 (Simulation time: 1 hr 30 min 39 sec) 
Heartbeat CPU 0 instructions: 950000001 cycles: 729579467 heartbeat IPC: 1.4652 cumulative IPC: 1.30125 (Simulation time: 1 hr 31 min 31 sec) 
Heartbeat CPU 0 instructions: 960000001 cycles: 736515343 heartbeat IPC: 1.44178 cumulative IPC: 1.30258 (Simulation time: 1 hr 32 min 21 sec) 
Heartbeat CPU 0 instructions: 970000001 cycles: 743715092 heartbeat IPC: 1.38894 cumulative IPC: 1.30341 (Simulation time: 1 hr 33 min 12 sec) 
Heartbeat CPU 0 instructions: 980000004 cycles: 750853002 heartbeat IPC: 1.40097 cumulative IPC: 1.30434 (Simulation time: 1 hr 34 min 4 sec) 
Heartbeat CPU 0 instructions: 990000002 cycles: 756601395 heartbeat IPC: 1.73962 cumulative IPC: 1.30765 (Simulation time: 1 hr 34 min 46 sec) 
Heartbeat CPU 0 instructions: 1000000001 cycles: 764831723 heartbeat IPC: 1.21502 cumulative IPC: 1.30665 (Simulation time: 1 hr 35 min 35 sec) 
Finished CPU 0 instructions: 1000000001 cycles: 765032677 cumulative IPC: 1.30713 (Simulation time: 1 hr 35 min 38 sec) 

ChampSim completed all CPUs

Region of Interest Statistics

CPU 0 cumulative IPC: 1.30713 instructions: 1000000001 cycles: 765032677
cpu0_DTLB TOTAL     ACCESS:  199805541  HIT:  199329048  MISS:     476493
cpu0_DTLB LOAD      ACCESS:  159889330  HIT:  159497293  MISS:     392037
cpu0_DTLB RFO       ACCESS:   39916211  HIT:   39831755  MISS:      84456
cpu0_DTLB PREFETCH  ACCESS:          0  HIT:          0  MISS:          0
cpu0_DTLB WRITEBACK ACCESS:          0  HIT:          0  MISS:          0
cpu0_DTLB TRANSLATION ACCESS:          0  HIT:          0  MISS:          0
cpu0_DTLB PREFETCH  REQUESTED:          0  ISSUED:          0  USEFUL:          0  USELESS:          0
cpu0_DTLB AVERAGE MISS LATENCY: 33.0618 cycles
cpu0_ITLB TOTAL     ACCESS:   81932909  HIT:   81910536  MISS:      22373
cpu0_ITLB LOAD      ACCESS:   81932909  HIT:   81910536  MISS:      22373
cpu0_ITLB RFO       ACCESS:          0  HIT:          0  MISS:          0
cpu0_ITLB PREFETCH  ACCESS:          0  HIT:          0  MISS:          0
cpu0_ITLB WRITEBACK ACCESS:          0  HIT:          0  MISS:          0
cpu0_ITLB TRANSLATION ACCESS:          0  HIT:          0  MISS:          0
cpu0_ITLB PREFETCH  REQUESTED:          0  ISSUED:          0  USEFUL:          0  USELESS:          0
cpu0_ITLB AVERAGE MISS LATENCY: 12.4593 cycles
cpu0_L1I TOTAL     ACCESS:    7040877  HIT:    6518934  MISS:     521943
cpu0_L1I LOAD      ACCESS:    7040877  HIT:    6518934  MISS:     521943
cpu0_L1I RFO       ACCESS:          0  HIT:          0  MISS:          0
cpu0_L1I PREFETCH  ACCESS:          0  HIT:          0  MISS:          0
cpu0_L1I WRITEBACK ACCESS:          0  HIT:          0  MISS:          0
cpu0_L1I TRANSLATION ACCESS:          0  HIT:          0  MISS:          0
cpu0_L1I PREFETCH  REQUESTED:          0  ISSUED:          0  USEFUL:          0  USELESS:          0
cpu0_L1I AVERAGE MISS LATENCY: 82.9314 cycles
cpu0_STLB TOTAL     ACCESS:     498866  HIT:     451368  MISS:      47498
cpu0_STLB LOAD      ACCESS:     414410  HIT:     384991  MISS:      29419
cpu0_STLB RFO       ACCESS:      84456  HIT:      66377  MISS:      18079
cpu0_STLB PREFETCH  ACCESS:          0  HIT:          0  MISS:          0
cpu0_STLB WRITEBACK ACCESS:          0  HIT:          0  MISS:          0
cpu0_STLB TRANSLATION ACCESS:          0  HIT:          0  MISS:          0
cpu0_STLB PREFETCH  REQUESTED:          0  ISSUED:          0  USEFUL:          0  USELESS:          0
cpu0_STLB AVERAGE MISS LATENCY: 242.39 cycles
cpu0_L1D TOTAL     ACCESS:  285104684  HIT:  266095533  MISS:   19009151
cpu0_L1D LOAD      ACCESS:  128982987  HIT:  123151334  MISS:    5831653
cpu0_L1D RFO       ACCESS:   50125563  HIT:   44244890  MISS:    5880673
cpu0_L1D PREFETCH  ACCESS:  105950215  HIT:   98680828  MISS:    7269387
cpu0_L1D WRITEBACK ACCESS:          0  HIT:          0  MISS:          0
cpu0_L1D TRANSLATION ACCESS:      45919  HIT:      18481  MISS:      27438
cpu0_L1D PREFETCH  REQUESTED:  134754724  ISSUED:  124443500  USEFUL:   10808268  USELESS:     585108
cpu0_L1D AVERAGE MISS LATENCY: 81.0803 cycles
cpu0_L2C TOTAL     ACCESS:   33052702  HIT:   24038428  MISS:    9014274
cpu0_L2C LOAD      ACCESS:    2229401  HIT:    1097491  MISS:    1131910
cpu0_L2C RFO       ACCESS:    5878940  HIT:    3102245  MISS:    2776695
cpu0_L2C PREFETCH  ACCESS:   17362864  HIT:   12274257  MISS:    5088607
cpu0_L2C WRITEBACK ACCESS:    7554059  HIT:    7548601  MISS:       5458
cpu0_L2C TRANSLATION ACCESS:      27438  HIT:      15834  MISS:      11604
cpu0_L2C PREFETCH  REQUESTED:    7295463  ISSUED:    6263648  USEFUL:     195160  USELESS:      75069
cpu0_L2C AVERAGE MISS LATENCY: 263.647 cycles
LLC TOTAL     ACCESS:   12918083  HIT:    8383056  MISS:    4535027
LLC LOAD      ACCESS:    1131840  HIT:     935575  MISS:     196265
LLC RFO       ACCESS:    2776581  HIT:    1587859  MISS:    1188722
LLC PREFETCH  ACCESS:    5098412  HIT:    2674812  MISS:    2423600
LLC WRITEBACK ACCESS:    3899646  HIT:    3178556  MISS:     721090
LLC TRANSLATION ACCESS:      11604  HIT:       6254  MISS:       5350
LLC PREFETCH  REQUESTED:          0  ISSUED:          0  USEFUL:          0  USELESS:          0
LLC AVERAGE MISS LATENCY: 471.941 cycles
OPTgen accesses: 61089
OPTgen hits: 53986
OPTgen hit rate: 88.3727



DRAM Statistics
 CHANNEL 0
 RQ ROW_BUFFER_HIT:     830306  ROW_BUFFER_MISS:    2982796
 DBUS AVG_CONGESTED_CYCLE:    3.94956
 WQ ROW_BUFFER_HIT:     148066  ROW_BUFFER_MISS:    1620301  FULL:     107522


CPU 0 Branch Prediction Accuracy: 97.2835% MPKI: 4.12422 Average ROB Occupancy at Mispredict: 65.6378
Branch type MPKI
BRANCH_DIRECT_JUMP: 0.000121
BRANCH_INDIRECT: 0.000752
BRANCH_CONDITIONAL: 4.12278
BRANCH_DIRECT_CALL: 0.000345
BRANCH_INDIRECT_CALL: 0
BRANCH_RETURN: 0.000222

