
*** ChampSim Multicore Out-of-Order Simulator ***

Warmup Instructions: 1000000
Simulation Instructions: 1000000000
Number of CPUs: 1
Off-chip DRAM Size: 4 GiB Channels: 1 Width: 64-bit Data Rate: 3200 MT/s

VirtualMemory physical capacity: 8588881920 num_ppages: 2096895
VirtualMemory page size: 4096 log2_page_size: 12

CPU 0 runs tracer/pin/traces/spec2k17/625.x264_s-18B.champsimtrace.xz
Basic BTB sets: 1024 ways: 8 indirect buffer size: 4096 RAS size: 64
cpu0_L1D next line prefetcher
cpu0_L2C IP-based stride prefetcher
Initialize Hawkeye state
WARNING: The extended signature CACHE::prefetch_line(ip, base_addr, pf_addr, fill_this_level, prefetch_metadata) is deprecated.
WARNING: Use CACHE::prefetch_line(pf_addr, fill_this_level, prefetch_metadata) instead.

Warmup complete CPU 0 instructions: 1000003 cycles: 253064 (Simulation time: 0 hr 0 min 3 sec) 

Heartbeat CPU 0 instructions: 10000000 cycles: 4050315 heartbeat IPC: 2.46894 cumulative IPC: 2.37013 (Simulation time: 0 hr 0 min 36 sec) 
Heartbeat CPU 0 instructions: 20000000 cycles: 8226892 heartbeat IPC: 2.39431 cumulative IPC: 2.38279 (Simulation time: 0 hr 1 min 12 sec) 
Heartbeat CPU 0 instructions: 30000003 cycles: 12281136 heartbeat IPC: 2.46655 cumulative IPC: 2.41103 (Simulation time: 0 hr 1 min 48 sec) 
Heartbeat CPU 0 instructions: 40000003 cycles: 16303526 heartbeat IPC: 2.48608 cumulative IPC: 2.42984 (Simulation time: 0 hr 2 min 25 sec) 
Heartbeat CPU 0 instructions: 50000004 cycles: 20343391 heartbeat IPC: 2.47533 cumulative IPC: 2.43898 (Simulation time: 0 hr 3 min 2 sec) 
Heartbeat CPU 0 instructions: 60000004 cycles: 24395904 heartbeat IPC: 2.4676 cumulative IPC: 2.44379 (Simulation time: 0 hr 3 min 39 sec) 
Heartbeat CPU 0 instructions: 70000003 cycles: 28438106 heartbeat IPC: 2.4739 cumulative IPC: 2.44811 (Simulation time: 0 hr 4 min 18 sec) 
Heartbeat CPU 0 instructions: 80000003 cycles: 32467266 heartbeat IPC: 2.48191 cumulative IPC: 2.45233 (Simulation time: 0 hr 4 min 55 sec) 
Heartbeat CPU 0 instructions: 90000004 cycles: 36522826 heartbeat IPC: 2.46575 cumulative IPC: 2.45383 (Simulation time: 0 hr 5 min 32 sec) 
Heartbeat CPU 0 instructions: 100000001 cycles: 40472018 heartbeat IPC: 2.53216 cumulative IPC: 2.46153 (Simulation time: 0 hr 6 min 11 sec) 
Heartbeat CPU 0 instructions: 110000004 cycles: 44315055 heartbeat IPC: 2.60211 cumulative IPC: 2.47379 (Simulation time: 0 hr 6 min 48 sec) 
Heartbeat CPU 0 instructions: 120000003 cycles: 48144495 heartbeat IPC: 2.61135 cumulative IPC: 2.48479 (Simulation time: 0 hr 7 min 25 sec) 
Heartbeat CPU 0 instructions: 130000002 cycles: 51958698 heartbeat IPC: 2.62178 cumulative IPC: 2.49489 (Simulation time: 0 hr 8 min 5 sec) 
Heartbeat CPU 0 instructions: 140000003 cycles: 59987172 heartbeat IPC: 1.24557 cumulative IPC: 2.32698 (Simulation time: 0 hr 8 min 50 sec) 
Heartbeat CPU 0 instructions: 150000002 cycles: 65414238 heartbeat IPC: 1.84262 cumulative IPC: 2.28664 (Simulation time: 0 hr 9 min 32 sec) 
Heartbeat CPU 0 instructions: 160000001 cycles: 69283418 heartbeat IPC: 2.58453 cumulative IPC: 2.30333 (Simulation time: 0 hr 10 min 12 sec) 
Heartbeat CPU 0 instructions: 170000004 cycles: 73258323 heartbeat IPC: 2.51578 cumulative IPC: 2.3149 (Simulation time: 0 hr 10 min 54 sec) 
Heartbeat CPU 0 instructions: 180000002 cycles: 77043535 heartbeat IPC: 2.64186 cumulative IPC: 2.33102 (Simulation time: 0 hr 11 min 35 sec) 
Heartbeat CPU 0 instructions: 190000002 cycles: 80892398 heartbeat IPC: 2.59817 cumulative IPC: 2.34377 (Simulation time: 0 hr 12 min 17 sec) 
Heartbeat CPU 0 instructions: 200000000 cycles: 84872510 heartbeat IPC: 2.51249 cumulative IPC: 2.35171 (Simulation time: 0 hr 12 min 59 sec) 
Heartbeat CPU 0 instructions: 210000001 cycles: 88648417 heartbeat IPC: 2.64837 cumulative IPC: 2.36438 (Simulation time: 0 hr 13 min 41 sec) 
Heartbeat CPU 0 instructions: 220000002 cycles: 92489794 heartbeat IPC: 2.60323 cumulative IPC: 2.37433 (Simulation time: 0 hr 14 min 24 sec) 
Heartbeat CPU 0 instructions: 230000000 cycles: 96391763 heartbeat IPC: 2.56281 cumulative IPC: 2.38198 (Simulation time: 0 hr 15 min 10 sec) 
Heartbeat CPU 0 instructions: 240000004 cycles: 100248676 heartbeat IPC: 2.59275 cumulative IPC: 2.3901 (Simulation time: 0 hr 15 min 54 sec) 
Heartbeat CPU 0 instructions: 250000004 cycles: 104185613 heartbeat IPC: 2.54005 cumulative IPC: 2.39578 (Simulation time: 0 hr 16 min 40 sec) 
Heartbeat CPU 0 instructions: 260000001 cycles: 108001219 heartbeat IPC: 2.62081 cumulative IPC: 2.40375 (Simulation time: 0 hr 17 min 25 sec) 
Heartbeat CPU 0 instructions: 270000004 cycles: 111833799 heartbeat IPC: 2.60921 cumulative IPC: 2.41081 (Simulation time: 0 hr 18 min 9 sec) 
Heartbeat CPU 0 instructions: 280000000 cycles: 115826910 heartbeat IPC: 2.50431 cumulative IPC: 2.41404 (Simulation time: 0 hr 18 min 54 sec) 
Heartbeat CPU 0 instructions: 290000001 cycles: 119643506 heartbeat IPC: 2.62014 cumulative IPC: 2.42063 (Simulation time: 0 hr 19 min 39 sec) 
Heartbeat CPU 0 instructions: 300000002 cycles: 123464602 heartbeat IPC: 2.61705 cumulative IPC: 2.42672 (Simulation time: 0 hr 20 min 22 sec) 
Heartbeat CPU 0 instructions: 310000001 cycles: 127418037 heartbeat IPC: 2.52945 cumulative IPC: 2.42991 (Simulation time: 0 hr 21 min 7 sec) 
Heartbeat CPU 0 instructions: 320000001 cycles: 131223809 heartbeat IPC: 2.62759 cumulative IPC: 2.43566 (Simulation time: 0 hr 21 min 52 sec) 
Heartbeat CPU 0 instructions: 330000002 cycles: 135030412 heartbeat IPC: 2.62701 cumulative IPC: 2.44106 (Simulation time: 0 hr 22 min 36 sec) 
Heartbeat CPU 0 instructions: 340000000 cycles: 138837236 heartbeat IPC: 2.62686 cumulative IPC: 2.44617 (Simulation time: 0 hr 23 min 21 sec) 
Heartbeat CPU 0 instructions: 350000000 cycles: 142648237 heartbeat IPC: 2.62398 cumulative IPC: 2.45093 (Simulation time: 0 hr 24 min 6 sec) 
Heartbeat CPU 0 instructions: 360000004 cycles: 146454815 heartbeat IPC: 2.62703 cumulative IPC: 2.45551 (Simulation time: 0 hr 24 min 51 sec) 
Heartbeat CPU 0 instructions: 370000000 cycles: 150255553 heartbeat IPC: 2.63107 cumulative IPC: 2.45996 (Simulation time: 0 hr 25 min 36 sec) 
Heartbeat CPU 0 instructions: 380000002 cycles: 154066956 heartbeat IPC: 2.62371 cumulative IPC: 2.46402 (Simulation time: 0 hr 26 min 21 sec) 
Heartbeat CPU 0 instructions: 390000002 cycles: 157907023 heartbeat IPC: 2.60412 cumulative IPC: 2.46743 (Simulation time: 0 hr 27 min 5 sec) 
Heartbeat CPU 0 instructions: 400000001 cycles: 172239434 heartbeat IPC: 0.697719 cumulative IPC: 2.31995 (Simulation time: 0 hr 28 min 48 sec) 
Heartbeat CPU 0 instructions: 410000002 cycles: 176621586 heartbeat IPC: 2.28198 cumulative IPC: 2.31901 (Simulation time: 0 hr 29 min 46 sec) 
Heartbeat CPU 0 instructions: 420000002 cycles: 181766007 heartbeat IPC: 1.94385 cumulative IPC: 2.30838 (Simulation time: 0 hr 30 min 44 sec) 
Heartbeat CPU 0 instructions: 430000003 cycles: 186371038 heartbeat IPC: 2.17154 cumulative IPC: 2.30499 (Simulation time: 0 hr 31 min 33 sec) 
Heartbeat CPU 0 instructions: 440000001 cycles: 190316358 heartbeat IPC: 2.53465 cumulative IPC: 2.30976 (Simulation time: 0 hr 32 min 21 sec) 
Heartbeat CPU 0 instructions: 450000001 cycles: 194173219 heartbeat IPC: 2.59278 cumulative IPC: 2.31539 (Simulation time: 0 hr 33 min 8 sec) 
Heartbeat CPU 0 instructions: 460000004 cycles: 198106791 heartbeat IPC: 2.54222 cumulative IPC: 2.3199 (Simulation time: 0 hr 33 min 54 sec) 
Heartbeat CPU 0 instructions: 470000003 cycles: 202080659 heartbeat IPC: 2.51644 cumulative IPC: 2.32377 (Simulation time: 0 hr 34 min 42 sec) 
Heartbeat CPU 0 instructions: 480000002 cycles: 206020932 heartbeat IPC: 2.53789 cumulative IPC: 2.32787 (Simulation time: 0 hr 35 min 30 sec) 
Heartbeat CPU 0 instructions: 490000003 cycles: 210040655 heartbeat IPC: 2.48773 cumulative IPC: 2.33093 (Simulation time: 0 hr 36 min 17 sec) 
Heartbeat CPU 0 instructions: 500000003 cycles: 214042519 heartbeat IPC: 2.49884 cumulative IPC: 2.33407 (Simulation time: 0 hr 37 min 5 sec) 
Heartbeat CPU 0 instructions: 510000004 cycles: 217983657 heartbeat IPC: 2.53734 cumulative IPC: 2.33775 (Simulation time: 0 hr 37 min 52 sec) 
Heartbeat CPU 0 instructions: 520000003 cycles: 221864877 heartbeat IPC: 2.57651 cumulative IPC: 2.34193 (Simulation time: 0 hr 38 min 39 sec) 
Heartbeat CPU 0 instructions: 530000001 cycles: 225781080 heartbeat IPC: 2.55349 cumulative IPC: 2.34561 (Simulation time: 0 hr 39 min 27 sec) 
Heartbeat CPU 0 instructions: 540000004 cycles: 229754679 heartbeat IPC: 2.51661 cumulative IPC: 2.34857 (Simulation time: 0 hr 40 min 15 sec) 
Heartbeat CPU 0 instructions: 550000001 cycles: 233579993 heartbeat IPC: 2.61416 cumulative IPC: 2.35292 (Simulation time: 0 hr 41 min 1 sec) 
Heartbeat CPU 0 instructions: 560000000 cycles: 237443796 heartbeat IPC: 2.58812 cumulative IPC: 2.35675 (Simulation time: 0 hr 41 min 49 sec) 
Heartbeat CPU 0 instructions: 570000002 cycles: 250318916 heartbeat IPC: 0.776692 cumulative IPC: 2.2754 (Simulation time: 0 hr 43 min 27 sec) 
Heartbeat CPU 0 instructions: 580000003 cycles: 256306074 heartbeat IPC: 1.67024 cumulative IPC: 2.26125 (Simulation time: 0 hr 44 min 40 sec) 
Heartbeat CPU 0 instructions: 590000004 cycles: 260722139 heartbeat IPC: 2.26446 cumulative IPC: 2.2613 (Simulation time: 0 hr 45 min 28 sec) 
Heartbeat CPU 0 instructions: 600000003 cycles: 265119484 heartbeat IPC: 2.2741 cumulative IPC: 2.26152 (Simulation time: 0 hr 46 min 20 sec) 
Heartbeat CPU 0 instructions: 610000000 cycles: 269583842 heartbeat IPC: 2.23996 cumulative IPC: 2.26116 (Simulation time: 0 hr 47 min 12 sec) 
Heartbeat CPU 0 instructions: 620000003 cycles: 273975345 heartbeat IPC: 2.27713 cumulative IPC: 2.26142 (Simulation time: 0 hr 48 min 2 sec) 
Heartbeat CPU 0 instructions: 630000003 cycles: 278372356 heartbeat IPC: 2.27427 cumulative IPC: 2.26162 (Simulation time: 0 hr 48 min 53 sec) 
Heartbeat CPU 0 instructions: 640000003 cycles: 282779042 heartbeat IPC: 2.26928 cumulative IPC: 2.26174 (Simulation time: 0 hr 49 min 44 sec) 
Heartbeat CPU 0 instructions: 650000002 cycles: 287117619 heartbeat IPC: 2.3049 cumulative IPC: 2.26239 (Simulation time: 0 hr 50 min 35 sec) 
Heartbeat CPU 0 instructions: 660000000 cycles: 291403865 heartbeat IPC: 2.33304 cumulative IPC: 2.26343 (Simulation time: 0 hr 51 min 25 sec) 
Heartbeat CPU 0 instructions: 670000001 cycles: 305126277 heartbeat IPC: 0.728735 cumulative IPC: 2.19435 (Simulation time: 0 hr 53 min 10 sec) 
Heartbeat CPU 0 instructions: 680000002 cycles: 310293646 heartbeat IPC: 1.93522 cumulative IPC: 2.19004 (Simulation time: 0 hr 54 min 13 sec) 
Heartbeat CPU 0 instructions: 690000001 cycles: 314802675 heartbeat IPC: 2.21777 cumulative IPC: 2.19043 (Simulation time: 0 hr 55 min 4 sec) 
Heartbeat CPU 0 instructions: 700000001 cycles: 319256607 heartbeat IPC: 2.24521 cumulative IPC: 2.1912 (Simulation time: 0 hr 55 min 55 sec) 
Heartbeat CPU 0 instructions: 710000001 cycles: 323683687 heartbeat IPC: 2.25883 cumulative IPC: 2.19212 (Simulation time: 0 hr 56 min 46 sec) 
Heartbeat CPU 0 instructions: 720000001 cycles: 328122398 heartbeat IPC: 2.25291 cumulative IPC: 2.19295 (Simulation time: 0 hr 57 min 38 sec) 
Heartbeat CPU 0 instructions: 730000000 cycles: 332560072 heartbeat IPC: 2.25343 cumulative IPC: 2.19375 (Simulation time: 0 hr 58 min 29 sec) 
Heartbeat CPU 0 instructions: 740000003 cycles: 336941956 heartbeat IPC: 2.28212 cumulative IPC: 2.1949 (Simulation time: 0 hr 59 min 20 sec) 
Heartbeat CPU 0 instructions: 750000001 cycles: 341299332 heartbeat IPC: 2.29496 cumulative IPC: 2.19618 (Simulation time: 1 hr 0 min 10 sec) 
Heartbeat CPU 0 instructions: 760000000 cycles: 354512797 heartbeat IPC: 0.756804 cumulative IPC: 2.1425 (Simulation time: 1 hr 1 min 50 sec) 
Heartbeat CPU 0 instructions: 770000004 cycles: 360091303 heartbeat IPC: 1.7926 cumulative IPC: 2.13707 (Simulation time: 1 hr 2 min 57 sec) 
Heartbeat CPU 0 instructions: 780000001 cycles: 365473697 heartbeat IPC: 1.85791 cumulative IPC: 2.13296 (Simulation time: 1 hr 3 min 52 sec) 
Heartbeat CPU 0 instructions: 790000000 cycles: 369200207 heartbeat IPC: 2.68348 cumulative IPC: 2.13852 (Simulation time: 1 hr 4 min 37 sec) 
Heartbeat CPU 0 instructions: 800000002 cycles: 372926193 heartbeat IPC: 2.68385 cumulative IPC: 2.14397 (Simulation time: 1 hr 5 min 21 sec) 
Heartbeat CPU 0 instructions: 810000004 cycles: 376654938 heartbeat IPC: 2.68187 cumulative IPC: 2.1493 (Simulation time: 1 hr 6 min 6 sec) 
Heartbeat CPU 0 instructions: 820000000 cycles: 380390443 heartbeat IPC: 2.67701 cumulative IPC: 2.15448 (Simulation time: 1 hr 6 min 49 sec) 
Heartbeat CPU 0 instructions: 830000001 cycles: 384115770 heartbeat IPC: 2.68433 cumulative IPC: 2.15963 (Simulation time: 1 hr 7 min 33 sec) 
Heartbeat CPU 0 instructions: 840000001 cycles: 387860394 heartbeat IPC: 2.6705 cumulative IPC: 2.16456 (Simulation time: 1 hr 8 min 17 sec) 
Heartbeat CPU 0 instructions: 850000000 cycles: 391570534 heartbeat IPC: 2.69532 cumulative IPC: 2.16959 (Simulation time: 1 hr 9 min 3 sec) 
Heartbeat CPU 0 instructions: 860000001 cycles: 395267741 heartbeat IPC: 2.70474 cumulative IPC: 2.1746 (Simulation time: 1 hr 9 min 48 sec) 
Heartbeat CPU 0 instructions: 870000004 cycles: 398966575 heartbeat IPC: 2.70356 cumulative IPC: 2.17951 (Simulation time: 1 hr 10 min 31 sec) 
Heartbeat CPU 0 instructions: 880000001 cycles: 402743617 heartbeat IPC: 2.64757 cumulative IPC: 2.1839 (Simulation time: 1 hr 11 min 16 sec) 
Heartbeat CPU 0 instructions: 890000001 cycles: 406541759 heartbeat IPC: 2.63287 cumulative IPC: 2.1881 (Simulation time: 1 hr 12 min 0 sec) 
Heartbeat CPU 0 instructions: 900000000 cycles: 410343096 heartbeat IPC: 2.63065 cumulative IPC: 2.1922 (Simulation time: 1 hr 12 min 45 sec) 
Heartbeat CPU 0 instructions: 910000000 cycles: 414142206 heartbeat IPC: 2.6322 cumulative IPC: 2.19624 (Simulation time: 1 hr 13 min 29 sec) 
Heartbeat CPU 0 instructions: 920000000 cycles: 417946190 heartbeat IPC: 2.62882 cumulative IPC: 2.20018 (Simulation time: 1 hr 14 min 13 sec) 
Heartbeat CPU 0 instructions: 930000000 cycles: 421748922 heartbeat IPC: 2.62969 cumulative IPC: 2.20405 (Simulation time: 1 hr 14 min 57 sec) 
Heartbeat CPU 0 instructions: 940000000 cycles: 425534789 heartbeat IPC: 2.6414 cumulative IPC: 2.20795 (Simulation time: 1 hr 15 min 41 sec) 
Heartbeat CPU 0 instructions: 950000002 cycles: 429331449 heartbeat IPC: 2.63389 cumulative IPC: 2.21172 (Simulation time: 1 hr 16 min 26 sec) 
Heartbeat CPU 0 instructions: 960000002 cycles: 433135378 heartbeat IPC: 2.62886 cumulative IPC: 2.21538 (Simulation time: 1 hr 17 min 7 sec) 
Heartbeat CPU 0 instructions: 970000000 cycles: 436922021 heartbeat IPC: 2.64086 cumulative IPC: 2.21907 (Simulation time: 1 hr 17 min 51 sec) 
Heartbeat CPU 0 instructions: 980000001 cycles: 440679296 heartbeat IPC: 2.6615 cumulative IPC: 2.22285 (Simulation time: 1 hr 18 min 34 sec) 
Heartbeat CPU 0 instructions: 990000000 cycles: 444446591 heartbeat IPC: 2.65442 cumulative IPC: 2.22651 (Simulation time: 1 hr 19 min 17 sec) 
Heartbeat CPU 0 instructions: 1000000002 cycles: 448216436 heartbeat IPC: 2.65263 cumulative IPC: 2.23009 (Simulation time: 1 hr 20 min 1 sec) 
Finished CPU 0 instructions: 1000000003 cycles: 448333908 cumulative IPC: 2.23048 (Simulation time: 1 hr 20 min 5 sec) 

ChampSim completed all CPUs

Region of Interest Statistics

CPU 0 cumulative IPC: 2.23048 instructions: 1000000003 cycles: 448333908
cpu0_DTLB TOTAL     ACCESS:  128483243  HIT:  127336795  MISS:    1146448
cpu0_DTLB LOAD      ACCESS:   91153891  HIT:   90413117  MISS:     740774
cpu0_DTLB RFO       ACCESS:   37329352  HIT:   36923678  MISS:     405674
cpu0_DTLB PREFETCH  ACCESS:          0  HIT:          0  MISS:          0
cpu0_DTLB WRITEBACK ACCESS:          0  HIT:          0  MISS:          0
cpu0_DTLB TRANSLATION ACCESS:          0  HIT:          0  MISS:          0
cpu0_DTLB PREFETCH  REQUESTED:          0  ISSUED:          0  USEFUL:          0  USELESS:          0
cpu0_DTLB AVERAGE MISS LATENCY: 11.5341 cycles
cpu0_ITLB TOTAL     ACCESS:   44084205  HIT:   44082048  MISS:       2157
cpu0_ITLB LOAD      ACCESS:   44084205  HIT:   44082048  MISS:       2157
cpu0_ITLB RFO       ACCESS:          0  HIT:          0  MISS:          0
cpu0_ITLB PREFETCH  ACCESS:          0  HIT:          0  MISS:          0
cpu0_ITLB WRITEBACK ACCESS:          0  HIT:          0  MISS:          0
cpu0_ITLB TRANSLATION ACCESS:          0  HIT:          0  MISS:          0
cpu0_ITLB PREFETCH  REQUESTED:          0  ISSUED:          0  USEFUL:          0  USELESS:          0
cpu0_ITLB AVERAGE MISS LATENCY: 26.5489 cycles
cpu0_L1I TOTAL     ACCESS:   30120549  HIT:   28136908  MISS:    1983641
cpu0_L1I LOAD      ACCESS:   30120549  HIT:   28136908  MISS:    1983641
cpu0_L1I RFO       ACCESS:          0  HIT:          0  MISS:          0
cpu0_L1I PREFETCH  ACCESS:          0  HIT:          0  MISS:          0
cpu0_L1I WRITEBACK ACCESS:          0  HIT:          0  MISS:          0
cpu0_L1I TRANSLATION ACCESS:          0  HIT:          0  MISS:          0
cpu0_L1I PREFETCH  REQUESTED:          0  ISSUED:          0  USEFUL:          0  USELESS:          0
cpu0_L1I AVERAGE MISS LATENCY: 16.8086 cycles
cpu0_STLB TOTAL     ACCESS:    1148605  HIT:    1131112  MISS:      17493
cpu0_STLB LOAD      ACCESS:     742931  HIT:     731782  MISS:      11149
cpu0_STLB RFO       ACCESS:     405674  HIT:     399330  MISS:       6344
cpu0_STLB PREFETCH  ACCESS:          0  HIT:          0  MISS:          0
cpu0_STLB WRITEBACK ACCESS:          0  HIT:          0  MISS:          0
cpu0_STLB TRANSLATION ACCESS:          0  HIT:          0  MISS:          0
cpu0_STLB PREFETCH  REQUESTED:          0  ISSUED:          0  USEFUL:          0  USELESS:          0
cpu0_STLB AVERAGE MISS LATENCY: 165.51 cycles
cpu0_L1D TOTAL     ACCESS:  239966078  HIT:  234254536  MISS:    5711542
cpu0_L1D LOAD      ACCESS:   88499801  HIT:   86266728  MISS:    2233073
cpu0_L1D RFO       ACCESS:   67600754  HIT:   66446564  MISS:    1154190
cpu0_L1D PREFETCH  ACCESS:   83849481  HIT:   81527439  MISS:    2322042
cpu0_L1D WRITEBACK ACCESS:          0  HIT:          0  MISS:          0
cpu0_L1D TRANSLATION ACCESS:      16042  HIT:      13805  MISS:       2237
cpu0_L1D PREFETCH  REQUESTED:   89573384  ISSUED:   87191787  USEFUL:    1579671  USELESS:     831545
cpu0_L1D AVERAGE MISS LATENCY: 138.217 cycles
cpu0_L2C TOTAL     ACCESS:    9856930  HIT:    8259574  MISS:    1597356
cpu0_L2C LOAD      ACCESS:    4128591  HIT:    3689725  MISS:     438866
cpu0_L2C RFO       ACCESS:    1148560  HIT:     759761  MISS:     388799
cpu0_L2C PREFETCH  ACCESS:    3159701  HIT:    2395210  MISS:     764491
cpu0_L2C WRITEBACK ACCESS:    1417841  HIT:    1413374  MISS:       4467
cpu0_L2C TRANSLATION ACCESS:       2237  HIT:       1504  MISS:        733
cpu0_L2C PREFETCH  REQUESTED:     961188  ISSUED:     794519  USEFUL:      30591  USELESS:      13643
cpu0_L2C AVERAGE MISS LATENCY: 500.419 cycles
LLC TOTAL     ACCESS:    2131212  HIT:     641858  MISS:    1489354
LLC LOAD      ACCESS:     438864  HIT:     149685  MISS:     289179
LLC RFO       ACCESS:     388664  HIT:      19042  MISS:     369622
LLC PREFETCH  ACCESS:     772620  HIT:     195168  MISS:     577452
LLC WRITEBACK ACCESS:     530331  HIT:     277528  MISS:     252803
LLC TRANSLATION ACCESS:        733  HIT:        435  MISS:        298
LLC PREFETCH  REQUESTED:          0  ISSUED:          0  USEFUL:          0  USELESS:          0
LLC AVERAGE MISS LATENCY: 512.882 cycles
OPTgen accesses: 13436
OPTgen hits: 5759
OPTgen hit rate: 42.8625



DRAM Statistics
 CHANNEL 0
 RQ ROW_BUFFER_HIT:      74226  ROW_BUFFER_MISS:    1162130
 DBUS AVG_CONGESTED_CYCLE:    3.95026
 WQ ROW_BUFFER_HIT:      30926  ROW_BUFFER_MISS:     463515  FULL:       9280


CPU 0 Branch Prediction Accuracy: 92.228% MPKI: 3.12108 Average ROB Occupancy at Mispredict: 80.729
Branch type MPKI
BRANCH_DIRECT_JUMP: 0.000274
BRANCH_INDIRECT: 0.000875
BRANCH_CONDITIONAL: 3.02896
BRANCH_DIRECT_CALL: 0.000472
BRANCH_INDIRECT_CALL: 0.019393
BRANCH_RETURN: 0.0711

