
*** ChampSim Multicore Out-of-Order Simulator ***

Warmup Instructions: 200000000
Simulation Instructions: 1000000000
Number of CPUs: 1
Off-chip DRAM Size: 4 GiB Channels: 1 Width: 64-bit Data Rate: 3200 MT/s

VirtualMemory physical capacity: 8588881920 num_ppages: 2096895
VirtualMemory page size: 4096 log2_page_size: 12

CPU 0 runs tracer/pin/traces/bc-road-4.champsim.xz
Basic BTB sets: 1024 ways: 8 indirect buffer size: 4096 RAS size: 64
cpu0_L1D next line prefetcher
cpu0_L2C IP-based stride prefetcher
Initialize Hawkeye state
WARNING: The extended signature CACHE::prefetch_line(ip, base_addr, pf_addr, fill_this_level, prefetch_metadata) is deprecated.
WARNING: Use CACHE::prefetch_line(pf_addr, fill_this_level, prefetch_metadata) instead.
Heartbeat CPU 0 instructions: 10000002 cycles: 2500069 heartbeat IPC: 3.99989 cumulative IPC: 3.99989 (Simulation time: 0 hr 0 min 32 sec) 
Heartbeat CPU 0 instructions: 20000002 cycles: 5000069 heartbeat IPC: 4 cumulative IPC: 3.99995 (Simulation time: 0 hr 1 min 3 sec) 
Heartbeat CPU 0 instructions: 30000002 cycles: 7500069 heartbeat IPC: 4 cumulative IPC: 3.99996 (Simulation time: 0 hr 1 min 34 sec) 
Heartbeat CPU 0 instructions: 40000002 cycles: 10000069 heartbeat IPC: 4 cumulative IPC: 3.99997 (Simulation time: 0 hr 2 min 7 sec) 
Heartbeat CPU 0 instructions: 50000000 cycles: 19246799 heartbeat IPC: 1.08146 cumulative IPC: 2.59783 (Simulation time: 0 hr 3 min 48 sec) 
Heartbeat CPU 0 instructions: 60000001 cycles: 29246799 heartbeat IPC: 1 cumulative IPC: 2.05151 (Simulation time: 0 hr 5 min 40 sec) 
Heartbeat CPU 0 instructions: 70000001 cycles: 39246801 heartbeat IPC: 1 cumulative IPC: 1.78358 (Simulation time: 0 hr 7 min 25 sec) 
Heartbeat CPU 0 instructions: 80000000 cycles: 49246800 heartbeat IPC: 1 cumulative IPC: 1.62447 (Simulation time: 0 hr 9 min 13 sec) 
Heartbeat CPU 0 instructions: 90000000 cycles: 59246798 heartbeat IPC: 1 cumulative IPC: 1.51907 (Simulation time: 0 hr 11 min 6 sec) 
Heartbeat CPU 0 instructions: 100000001 cycles: 69246800 heartbeat IPC: 1 cumulative IPC: 1.44411 (Simulation time: 0 hr 12 min 55 sec) 
Heartbeat CPU 0 instructions: 110000000 cycles: 79246799 heartbeat IPC: 1 cumulative IPC: 1.38807 (Simulation time: 0 hr 14 min 48 sec) 
Heartbeat CPU 0 instructions: 120000001 cycles: 89246800 heartbeat IPC: 1 cumulative IPC: 1.34459 (Simulation time: 0 hr 16 min 38 sec) 
Heartbeat CPU 0 instructions: 130000000 cycles: 99246800 heartbeat IPC: 1 cumulative IPC: 1.30987 (Simulation time: 0 hr 18 min 29 sec) 
Heartbeat CPU 0 instructions: 140000001 cycles: 109246799 heartbeat IPC: 1 cumulative IPC: 1.2815 (Simulation time: 0 hr 20 min 20 sec) 
Heartbeat CPU 0 instructions: 150000000 cycles: 119246799 heartbeat IPC: 1 cumulative IPC: 1.2579 (Simulation time: 0 hr 22 min 7 sec) 
Heartbeat CPU 0 instructions: 160000000 cycles: 129246800 heartbeat IPC: 1 cumulative IPC: 1.23794 (Simulation time: 0 hr 23 min 51 sec) 
Heartbeat CPU 0 instructions: 170000002 cycles: 139246801 heartbeat IPC: 1 cumulative IPC: 1.22085 (Simulation time: 0 hr 25 min 43 sec) 
Heartbeat CPU 0 instructions: 180000000 cycles: 149246799 heartbeat IPC: 1 cumulative IPC: 1.20606 (Simulation time: 0 hr 27 min 32 sec) 
Heartbeat CPU 0 instructions: 190000001 cycles: 159246799 heartbeat IPC: 1 cumulative IPC: 1.19312 (Simulation time: 0 hr 29 min 10 sec) 
Heartbeat CPU 0 instructions: 200000002 cycles: 169246800 heartbeat IPC: 1 cumulative IPC: 1.18171 (Simulation time: 0 hr 30 min 30 sec) 

Warmup complete CPU 0 instructions: 200000002 cycles: 169246800 (Simulation time: 0 hr 30 min 30 sec) 

Heartbeat CPU 0 instructions: 210000000 cycles: 209792565 heartbeat IPC: 0.246635 cumulative IPC: 0.246635 (Simulation time: 0 hr 33 min 31 sec) 
Heartbeat CPU 0 instructions: 220000000 cycles: 250306344 heartbeat IPC: 0.24683 cumulative IPC: 0.246732 (Simulation time: 0 hr 36 min 19 sec) 
Heartbeat CPU 0 instructions: 230000000 cycles: 290848037 heartbeat IPC: 0.24666 cumulative IPC: 0.246708 (Simulation time: 0 hr 39 min 8 sec) 
Heartbeat CPU 0 instructions: 240000000 cycles: 331403840 heartbeat IPC: 0.246574 cumulative IPC: 0.246674 (Simulation time: 0 hr 41 min 57 sec) 
Heartbeat CPU 0 instructions: 250000000 cycles: 371843218 heartbeat IPC: 0.247284 cumulative IPC: 0.246796 (Simulation time: 0 hr 44 min 47 sec) 
Heartbeat CPU 0 instructions: 260000000 cycles: 412354906 heartbeat IPC: 0.246842 cumulative IPC: 0.246804 (Simulation time: 0 hr 47 min 37 sec) 
Heartbeat CPU 0 instructions: 270000000 cycles: 452904063 heartbeat IPC: 0.246614 cumulative IPC: 0.246777 (Simulation time: 0 hr 50 min 25 sec) 
Heartbeat CPU 0 instructions: 280000000 cycles: 493455481 heartbeat IPC: 0.2466 cumulative IPC: 0.246755 (Simulation time: 0 hr 53 min 17 sec) 
Heartbeat CPU 0 instructions: 290000000 cycles: 534015057 heartbeat IPC: 0.246551 cumulative IPC: 0.246732 (Simulation time: 0 hr 56 min 7 sec) 
Heartbeat CPU 0 instructions: 300000000 cycles: 574522806 heartbeat IPC: 0.246866 cumulative IPC: 0.246745 (Simulation time: 0 hr 58 min 57 sec) 
Heartbeat CPU 0 instructions: 310000000 cycles: 615068521 heartbeat IPC: 0.246635 cumulative IPC: 0.246735 (Simulation time: 1 hr 1 min 46 sec) 
Heartbeat CPU 0 instructions: 320000000 cycles: 655629511 heartbeat IPC: 0.246542 cumulative IPC: 0.246719 (Simulation time: 1 hr 4 min 46 sec) 
Heartbeat CPU 0 instructions: 330000000 cycles: 696149565 heartbeat IPC: 0.246791 cumulative IPC: 0.246725 (Simulation time: 1 hr 7 min 51 sec) 
Heartbeat CPU 0 instructions: 340000000 cycles: 735082787 heartbeat IPC: 0.25685 cumulative IPC: 0.247422 (Simulation time: 1 hr 9 min 57 sec) 
Heartbeat CPU 0 instructions: 350000002 cycles: 778654775 heartbeat IPC: 0.229505 cumulative IPC: 0.246141 (Simulation time: 1 hr 11 min 38 sec) 
Heartbeat CPU 0 instructions: 360000000 cycles: 832695704 heartbeat IPC: 0.185045 cumulative IPC: 0.241164 (Simulation time: 1 hr 13 min 39 sec) 
Heartbeat CPU 0 instructions: 370000001 cycles: 893732503 heartbeat IPC: 0.163836 cumulative IPC: 0.234649 (Simulation time: 1 hr 15 min 36 sec) 
Heartbeat CPU 0 instructions: 380000002 cycles: 961678858 heartbeat IPC: 0.147175 cumulative IPC: 0.227149 (Simulation time: 1 hr 17 min 45 sec) 
Heartbeat CPU 0 instructions: 390000004 cycles: 1035226832 heartbeat IPC: 0.135966 cumulative IPC: 0.219405 (Simulation time: 1 hr 20 min 2 sec) 
Heartbeat CPU 0 instructions: 400000003 cycles: 1113983930 heartbeat IPC: 0.126973 cumulative IPC: 0.211699 (Simulation time: 1 hr 22 min 26 sec) 
Heartbeat CPU 0 instructions: 410000004 cycles: 1189899123 heartbeat IPC: 0.131726 cumulative IPC: 0.205751 (Simulation time: 1 hr 24 min 47 sec) 
Heartbeat CPU 0 instructions: 420000004 cycles: 1267479818 heartbeat IPC: 0.128898 cumulative IPC: 0.200322 (Simulation time: 1 hr 27 min 11 sec) 
Heartbeat CPU 0 instructions: 430000003 cycles: 1350784414 heartbeat IPC: 0.120041 cumulative IPC: 0.194662 (Simulation time: 1 hr 29 min 43 sec) 
Heartbeat CPU 0 instructions: 440000004 cycles: 1429601664 heartbeat IPC: 0.126876 cumulative IPC: 0.190423 (Simulation time: 1 hr 32 min 9 sec) 
Heartbeat CPU 0 instructions: 450000001 cycles: 1519910388 heartbeat IPC: 0.110731 cumulative IPC: 0.185094 (Simulation time: 1 hr 34 min 51 sec) 
Heartbeat CPU 0 instructions: 460000000 cycles: 1620129085 heartbeat IPC: 0.0997818 cumulative IPC: 0.179201 (Simulation time: 1 hr 37 min 47 sec) 
Heartbeat CPU 0 instructions: 470000001 cycles: 1733735110 heartbeat IPC: 0.0880235 cumulative IPC: 0.17258 (Simulation time: 1 hr 41 min 5 sec) 
Heartbeat CPU 0 instructions: 480000004 cycles: 1852343865 heartbeat IPC: 0.0843108 cumulative IPC: 0.16636 (Simulation time: 1 hr 44 min 35 sec) 
Heartbeat CPU 0 instructions: 490000000 cycles: 1971016845 heartbeat IPC: 0.0842651 cumulative IPC: 0.160953 (Simulation time: 1 hr 48 min 0 sec) 
Heartbeat CPU 0 instructions: 500000002 cycles: 2093450198 heartbeat IPC: 0.0816771 cumulative IPC: 0.155909 (Simulation time: 1 hr 51 min 28 sec) 
Heartbeat CPU 0 instructions: 510000000 cycles: 2212691634 heartbeat IPC: 0.0838634 cumulative IPC: 0.151705 (Simulation time: 1 hr 54 min 51 sec) 
Heartbeat CPU 0 instructions: 520000003 cycles: 2334198005 heartbeat IPC: 0.0823002 cumulative IPC: 0.147809 (Simulation time: 1 hr 58 min 17 sec) 
Heartbeat CPU 0 instructions: 530000001 cycles: 2455270567 heartbeat IPC: 0.0825951 cumulative IPC: 0.144355 (Simulation time: 2 hr 1 min 42 sec) 
Heartbeat CPU 0 instructions: 540000003 cycles: 2575164456 heartbeat IPC: 0.0834071 cumulative IPC: 0.141318 (Simulation time: 2 hr 5 min 14 sec) 
Heartbeat CPU 0 instructions: 550000002 cycles: 2695744557 heartbeat IPC: 0.0829324 cumulative IPC: 0.138532 (Simulation time: 2 hr 8 min 46 sec) 
Heartbeat CPU 0 instructions: 560000001 cycles: 2816960432 heartbeat IPC: 0.0824974 cumulative IPC: 0.135966 (Simulation time: 2 hr 12 min 22 sec) 
Heartbeat CPU 0 instructions: 570000001 cycles: 2941294538 heartbeat IPC: 0.0804285 cumulative IPC: 0.133475 (Simulation time: 2 hr 15 min 56 sec) 
Heartbeat CPU 0 instructions: 580000004 cycles: 3063191326 heartbeat IPC: 0.0820366 cumulative IPC: 0.131309 (Simulation time: 2 hr 19 min 24 sec) 
Heartbeat CPU 0 instructions: 590000000 cycles: 3182371015 heartbeat IPC: 0.0839069 cumulative IPC: 0.129434 (Simulation time: 2 hr 22 min 47 sec) 
Heartbeat CPU 0 instructions: 600000000 cycles: 3304525645 heartbeat IPC: 0.0818635 cumulative IPC: 0.12758 (Simulation time: 2 hr 26 min 18 sec) 
Heartbeat CPU 0 instructions: 610000004 cycles: 3428920768 heartbeat IPC: 0.080389 cumulative IPC: 0.125779 (Simulation time: 2 hr 30 min 5 sec) 
Heartbeat CPU 0 instructions: 620000000 cycles: 3558008995 heartbeat IPC: 0.0774664 cumulative IPC: 0.123939 (Simulation time: 2 hr 33 min 59 sec) 
Heartbeat CPU 0 instructions: 630000000 cycles: 3695558096 heartbeat IPC: 0.0727013 cumulative IPC: 0.12194 (Simulation time: 2 hr 37 min 48 sec) 
Heartbeat CPU 0 instructions: 640000000 cycles: 3832586311 heartbeat IPC: 0.0729777 cumulative IPC: 0.120109 (Simulation time: 2 hr 41 min 36 sec) 
Heartbeat CPU 0 instructions: 650000001 cycles: 3966783551 heartbeat IPC: 0.0745172 cumulative IPC: 0.118498 (Simulation time: 2 hr 45 min 19 sec) 
Heartbeat CPU 0 instructions: 660000000 cycles: 4098760415 heartbeat IPC: 0.0757708 cumulative IPC: 0.117063 (Simulation time: 2 hr 48 min 59 sec) 
Heartbeat CPU 0 instructions: 670000001 cycles: 4231119462 heartbeat IPC: 0.0755521 cumulative IPC: 0.11571 (Simulation time: 2 hr 52 min 42 sec) 
Heartbeat CPU 0 instructions: 680000001 cycles: 4363569306 heartbeat IPC: 0.0755003 cumulative IPC: 0.11444 (Simulation time: 2 hr 56 min 22 sec) 
Heartbeat CPU 0 instructions: 690000001 cycles: 4503354012 heartbeat IPC: 0.0715386 cumulative IPC: 0.113057 (Simulation time: 3 hr 0 min 15 sec) 
Heartbeat CPU 0 instructions: 700000000 cycles: 4643759471 heartbeat IPC: 0.0712223 cumulative IPC: 0.111744 (Simulation time: 3 hr 4 min 11 sec) 
Heartbeat CPU 0 instructions: 710000000 cycles: 4788114486 heartbeat IPC: 0.0692737 cumulative IPC: 0.110417 (Simulation time: 3 hr 8 min 10 sec) 
Heartbeat CPU 0 instructions: 720000000 cycles: 4931811865 heartbeat IPC: 0.0695907 cumulative IPC: 0.109185 (Simulation time: 3 hr 12 min 16 sec) 
Heartbeat CPU 0 instructions: 730000000 cycles: 5078204866 heartbeat IPC: 0.0683093 cumulative IPC: 0.107966 (Simulation time: 3 hr 16 min 25 sec) 
Heartbeat CPU 0 instructions: 740000002 cycles: 5220904814 heartbeat IPC: 0.0700771 cumulative IPC: 0.106896 (Simulation time: 3 hr 20 min 35 sec) 
Heartbeat CPU 0 instructions: 750000002 cycles: 5365034937 heartbeat IPC: 0.0693818 cumulative IPC: 0.105855 (Simulation time: 3 hr 24 min 46 sec) 
Heartbeat CPU 0 instructions: 760000000 cycles: 5504487388 heartbeat IPC: 0.071709 cumulative IPC: 0.104962 (Simulation time: 3 hr 28 min 39 sec) 
Heartbeat CPU 0 instructions: 770000000 cycles: 5638253029 heartbeat IPC: 0.0747576 cumulative IPC: 0.104224 (Simulation time: 3 hr 32 min 18 sec) 
Heartbeat CPU 0 instructions: 780000000 cycles: 5773082799 heartbeat IPC: 0.0741676 cumulative IPC: 0.103501 (Simulation time: 3 hr 36 min 0 sec) 
Heartbeat CPU 0 instructions: 790000000 cycles: 5912535517 heartbeat IPC: 0.0717089 cumulative IPC: 0.102729 (Simulation time: 3 hr 39 min 47 sec) 
Heartbeat CPU 0 instructions: 800000000 cycles: 6051924975 heartbeat IPC: 0.0717414 cumulative IPC: 0.101994 (Simulation time: 3 hr 43 min 35 sec) 
Heartbeat CPU 0 instructions: 810000000 cycles: 6192038422 heartbeat IPC: 0.0713707 cumulative IPC: 0.101282 (Simulation time: 3 hr 47 min 24 sec) 
Heartbeat CPU 0 instructions: 820000001 cycles: 6334402970 heartbeat IPC: 0.0702422 cumulative IPC: 0.100565 (Simulation time: 3 hr 51 min 16 sec) 
Heartbeat CPU 0 instructions: 830000001 cycles: 6478033308 heartbeat IPC: 0.0696232 cumulative IPC: 0.0998607 (Simulation time: 3 hr 55 min 9 sec) 
Heartbeat CPU 0 instructions: 840000000 cycles: 6621810308 heartbeat IPC: 0.0695521 cumulative IPC: 0.0991854 (Simulation time: 3 hr 59 min 3 sec) 
Heartbeat CPU 0 instructions: 850000001 cycles: 6764314999 heartbeat IPC: 0.0701731 cumulative IPC: 0.0985585 (Simulation time: 4 hr 2 min 53 sec) 
Heartbeat CPU 0 instructions: 860000000 cycles: 6909655962 heartbeat IPC: 0.0688037 cumulative IPC: 0.0979169 (Simulation time: 4 hr 6 min 53 sec) 
Heartbeat CPU 0 instructions: 870000000 cycles: 7051333229 heartbeat IPC: 0.070583 cumulative IPC: 0.0973542 (Simulation time: 4 hr 10 min 44 sec) 
Heartbeat CPU 0 instructions: 880000003 cycles: 7194427459 heartbeat IPC: 0.069884 cumulative IPC: 0.0967947 (Simulation time: 4 hr 14 min 35 sec) 
Heartbeat CPU 0 instructions: 890000001 cycles: 7336868742 heartbeat IPC: 0.0702044 cumulative IPC: 0.0962662 (Simulation time: 4 hr 18 min 27 sec) 
Heartbeat CPU 0 instructions: 900000004 cycles: 7479816906 heartbeat IPC: 0.0699554 cumulative IPC: 0.0957518 (Simulation time: 4 hr 22 min 19 sec) 
Heartbeat CPU 0 instructions: 910000000 cycles: 7623788066 heartbeat IPC: 0.0694583 cumulative IPC: 0.095244 (Simulation time: 4 hr 26 min 15 sec) 
Heartbeat CPU 0 instructions: 920000001 cycles: 7766978997 heartbeat IPC: 0.0698368 cumulative IPC: 0.0947651 (Simulation time: 4 hr 30 min 11 sec) 
Heartbeat CPU 0 instructions: 930000002 cycles: 7914019163 heartbeat IPC: 0.0680086 cumulative IPC: 0.0942571 (Simulation time: 4 hr 34 min 9 sec) 
Heartbeat CPU 0 instructions: 940000000 cycles: 8058745961 heartbeat IPC: 0.0690957 cumulative IPC: 0.0937956 (Simulation time: 4 hr 38 min 3 sec) 
Heartbeat CPU 0 instructions: 950000000 cycles: 8198294049 heartbeat IPC: 0.0716599 cumulative IPC: 0.0934108 (Simulation time: 4 hr 41 min 50 sec) 
Heartbeat CPU 0 instructions: 960000002 cycles: 8339404250 heartbeat IPC: 0.0708666 cumulative IPC: 0.0930215 (Simulation time: 4 hr 45 min 38 sec) 
Heartbeat CPU 0 instructions: 970000001 cycles: 8477862007 heartbeat IPC: 0.0722242 cumulative IPC: 0.0926749 (Simulation time: 4 hr 49 min 34 sec) 
Heartbeat CPU 0 instructions: 980000004 cycles: 8613435497 heartbeat IPC: 0.0737608 cumulative IPC: 0.0923712 (Simulation time: 4 hr 53 min 29 sec) 
Heartbeat CPU 0 instructions: 990000000 cycles: 8747536020 heartbeat IPC: 0.0745709 cumulative IPC: 0.092093 (Simulation time: 4 hr 57 min 11 sec) 
Heartbeat CPU 0 instructions: 1000000002 cycles: 8882487719 heartbeat IPC: 0.0741006 cumulative IPC: 0.0918143 (Simulation time: 5 hr 0 min 57 sec) 
Heartbeat CPU 0 instructions: 1010000000 cycles: 9019232825 heartbeat IPC: 0.0731287 cumulative IPC: 0.0915256 (Simulation time: 5 hr 4 min 41 sec) 
Heartbeat CPU 0 instructions: 1020000000 cycles: 9155781999 heartbeat IPC: 0.0732337 cumulative IPC: 0.0912476 (Simulation time: 5 hr 8 min 25 sec) 
Heartbeat CPU 0 instructions: 1030000004 cycles: 9292589256 heartbeat IPC: 0.0730956 cumulative IPC: 0.0909754 (Simulation time: 5 hr 12 min 11 sec) 
Heartbeat CPU 0 instructions: 1040000001 cycles: 9425570884 heartbeat IPC: 0.0751983 cumulative IPC: 0.0907488 (Simulation time: 5 hr 15 min 52 sec) 
Heartbeat CPU 0 instructions: 1050000003 cycles: 9557836871 heartbeat IPC: 0.0756052 cumulative IPC: 0.0905354 (Simulation time: 5 hr 19 min 29 sec) 
Heartbeat CPU 0 instructions: 1060000000 cycles: 9689011791 heartbeat IPC: 0.0762341 cumulative IPC: 0.0903384 (Simulation time: 5 hr 23 min 5 sec) 
Heartbeat CPU 0 instructions: 1070000002 cycles: 9821740057 heartbeat IPC: 0.0753419 cumulative IPC: 0.0901322 (Simulation time: 5 hr 26 min 45 sec) 
Heartbeat CPU 0 instructions: 1080000000 cycles: 9956582583 heartbeat IPC: 0.0741606 cumulative IPC: 0.0899121 (Simulation time: 5 hr 30 min 27 sec) 
Heartbeat CPU 0 instructions: 1090000004 cycles: 10092226110 heartbeat IPC: 0.0737227 cumulative IPC: 0.0896908 (Simulation time: 5 hr 34 min 13 sec) 
Heartbeat CPU 0 instructions: 1100000003 cycles: 10228764157 heartbeat IPC: 0.0732397 cumulative IPC: 0.0894675 (Simulation time: 5 hr 38 min 1 sec) 
Heartbeat CPU 0 instructions: 1110000001 cycles: 10361043383 heartbeat IPC: 0.0755976 cumulative IPC: 0.0892875 (Simulation time: 5 hr 41 min 48 sec) 
Heartbeat CPU 0 instructions: 1120000000 cycles: 10497926427 heartbeat IPC: 0.0730551 cumulative IPC: 0.0890724 (Simulation time: 5 hr 45 min 37 sec) 
Heartbeat CPU 0 instructions: 1130000002 cycles: 10637001200 heartbeat IPC: 0.0719038 cumulative IPC: 0.0888443 (Simulation time: 5 hr 49 min 26 sec) 
Heartbeat CPU 0 instructions: 1140000003 cycles: 10774515759 heartbeat IPC: 0.0727196 cumulative IPC: 0.0886352 (Simulation time: 5 hr 53 min 11 sec) 
Heartbeat CPU 0 instructions: 1150000000 cycles: 10917720874 heartbeat IPC: 0.0698299 cumulative IPC: 0.0883846 (Simulation time: 5 hr 57 min 5 sec) 
Heartbeat CPU 0 instructions: 1160000001 cycles: 11059798548 heartbeat IPC: 0.070384 cumulative IPC: 0.0881498 (Simulation time: 6 hr 0 min 58 sec) 
Heartbeat CPU 0 instructions: 1170000000 cycles: 11202967321 heartbeat IPC: 0.0698476 cumulative IPC: 0.0879123 (Simulation time: 6 hr 4 min 52 sec) 
Heartbeat CPU 0 instructions: 1180000000 cycles: 11345008921 heartbeat IPC: 0.0704019 cumulative IPC: 0.0876898 (Simulation time: 6 hr 8 min 44 sec) 
Heartbeat CPU 0 instructions: 1190000001 cycles: 11487721407 heartbeat IPC: 0.070071 cumulative IPC: 0.0874676 (Simulation time: 6 hr 12 min 36 sec) 
*** Reached end of trace: tracer/pin/traces/bc-road-4.champsim.xz
Heartbeat CPU 0 instructions: 1200000000 cycles: 11628832580 heartbeat IPC: 0.0708661 cumulative IPC: 0.0872632 (Simulation time: 6 hr 16 min 26 sec) 
Finished CPU 0 instructions: 1000000001 cycles: 11459585781 cumulative IPC: 0.0872632 (Simulation time: 6 hr 16 min 26 sec) 

ChampSim completed all CPUs

Region of Interest Statistics

CPU 0 cumulative IPC: 0.0872632 instructions: 1000000001 cycles: 11459585781
cpu0_DTLB TOTAL     ACCESS:  430785111  HIT:  414375054  MISS:   16410057
cpu0_DTLB LOAD      ACCESS:  198875635  HIT:  183970460  MISS:   14905175
cpu0_DTLB RFO       ACCESS:  231909476  HIT:  230404594  MISS:    1504882
cpu0_DTLB PREFETCH  ACCESS:          0  HIT:          0  MISS:          0
cpu0_DTLB WRITEBACK ACCESS:          0  HIT:          0  MISS:          0
cpu0_DTLB TRANSLATION ACCESS:          0  HIT:          0  MISS:          0
cpu0_DTLB PREFETCH  REQUESTED:          0  ISSUED:          0  USEFUL:          0  USELESS:          0
cpu0_DTLB AVERAGE MISS LATENCY: 16.7313 cycles
cpu0_ITLB TOTAL     ACCESS:   98493742  HIT:   98493737  MISS:          5
cpu0_ITLB LOAD      ACCESS:   98493742  HIT:   98493737  MISS:          5
cpu0_ITLB RFO       ACCESS:          0  HIT:          0  MISS:          0
cpu0_ITLB PREFETCH  ACCESS:          0  HIT:          0  MISS:          0
cpu0_ITLB WRITEBACK ACCESS:          0  HIT:          0  MISS:          0
cpu0_ITLB TRANSLATION ACCESS:          0  HIT:          0  MISS:          0
cpu0_ITLB PREFETCH  REQUESTED:          0  ISSUED:          0  USEFUL:          0  USELESS:          0
cpu0_ITLB AVERAGE MISS LATENCY: 232 cycles
cpu0_L1I TOTAL     ACCESS:      43981  HIT:      43911  MISS:         70
cpu0_L1I LOAD      ACCESS:      43981  HIT:      43911  MISS:         70
cpu0_L1I RFO       ACCESS:          0  HIT:          0  MISS:          0
cpu0_L1I PREFETCH  ACCESS:          0  HIT:          0  MISS:          0
cpu0_L1I WRITEBACK ACCESS:          0  HIT:          0  MISS:          0
cpu0_L1I TRANSLATION ACCESS:          0  HIT:          0  MISS:          0
cpu0_L1I PREFETCH  REQUESTED:          0  ISSUED:          0  USEFUL:          0  USELESS:          0
cpu0_L1I AVERAGE MISS LATENCY: 763.529 cycles
cpu0_STLB TOTAL     ACCESS:   16410062  HIT:    7144004  MISS:    9266058
cpu0_STLB LOAD      ACCESS:   14905180  HIT:    6310759  MISS:    8594421
cpu0_STLB RFO       ACCESS:    1504882  HIT:     833245  MISS:     671637
cpu0_STLB PREFETCH  ACCESS:          0  HIT:          0  MISS:          0
cpu0_STLB WRITEBACK ACCESS:          0  HIT:          0  MISS:          0
cpu0_STLB TRANSLATION ACCESS:          0  HIT:          0  MISS:          0
cpu0_STLB PREFETCH  REQUESTED:          0  ISSUED:          0  USEFUL:          0  USELESS:          0
cpu0_STLB AVERAGE MISS LATENCY: 13.6616 cycles
cpu0_L1D TOTAL     ACCESS:  498733816  HIT:  406948899  MISS:   91784917
cpu0_L1D LOAD      ACCESS:  210190992  HIT:  167007715  MISS:   43183277
cpu0_L1D RFO       ACCESS:   81934560  HIT:   78365365  MISS:    3569195
cpu0_L1D PREFETCH  ACCESS:  197478994  HIT:  153073035  MISS:   44405959
cpu0_L1D WRITEBACK ACCESS:          0  HIT:          0  MISS:          0
cpu0_L1D TRANSLATION ACCESS:    9129270  HIT:    8502784  MISS:     626486
cpu0_L1D PREFETCH  REQUESTED:  211416912  ISSUED:  211348243  USEFUL:   22045841  USELESS:   22894273
cpu0_L1D AVERAGE MISS LATENCY: 333.518 cycles
cpu0_L2C TOTAL     ACCESS:  119127558  HIT:   31815283  MISS:   87312275
cpu0_L2C LOAD      ACCESS:   42648273  HIT:    2000901  MISS:   40647372
cpu0_L2C RFO       ACCESS:    3569181  HIT:      65420  MISS:    3503761
cpu0_L2C PREFETCH  ACCESS:   47056681  HIT:    4124584  MISS:   42932097
cpu0_L2C WRITEBACK ACCESS:   25226937  HIT:   25222215  MISS:       4722
cpu0_L2C TRANSLATION ACCESS:     626486  HIT:     402163  MISS:     224323
cpu0_L2C PREFETCH  REQUESTED:    2142846  ISSUED:    2124357  USEFUL:      39597  USELESS:     107298
cpu0_L2C AVERAGE MISS LATENCY: 340.438 cycles
LLC TOTAL     ACCESS:  111780488  HIT:   49781118  MISS:   61999370
LLC LOAD      ACCESS:   40647325  HIT:   15687415  MISS:   24959910
LLC RFO       ACCESS:    3503759  HIT:     361549  MISS:    3142210
LLC PREFETCH  ACCESS:   42934162  HIT:   13908933  MISS:   29025229
LLC WRITEBACK ACCESS:   24470919  HIT:   19658876  MISS:    4812043
LLC TRANSLATION ACCESS:     224323  HIT:     164345  MISS:      59978
LLC PREFETCH  REQUESTED:          0  ISSUED:          0  USEFUL:          0  USELESS:          0
LLC AVERAGE MISS LATENCY: 441.428 cycles
OPTgen accesses: 774743
OPTgen hits: 547346
OPTgen hit rate: 70.6487



DRAM Statistics
 CHANNEL 0
 RQ ROW_BUFFER_HIT:     529970  ROW_BUFFER_MISS:   56579529
 DBUS AVG_CONGESTED_CYCLE:    3.91299
 WQ ROW_BUFFER_HIT:     412816  ROW_BUFFER_MISS:   16418773  FULL:          0


CPU 0 Branch Prediction Accuracy: 76.0408% MPKI: 33.7031 Average ROB Occupancy at Mispredict: 18.8686
Branch type MPKI
BRANCH_DIRECT_JUMP: 1e-05
BRANCH_INDIRECT: 0
BRANCH_CONDITIONAL: 33.7031
BRANCH_DIRECT_CALL: 1.2e-05
BRANCH_INDIRECT_CALL: 0
BRANCH_RETURN: 1.2e-05

