
*** ChampSim Multicore Out-of-Order Simulator ***

Warmup Instructions: 1000000
Simulation Instructions: 1000000000
Number of CPUs: 1
Off-chip DRAM Size: 4 GiB Channels: 1 Width: 64-bit Data Rate: 3200 MT/s

VirtualMemory physical capacity: 8588881920 num_ppages: 2096895
VirtualMemory page size: 4096 log2_page_size: 12

CPU 0 runs tracer/pin/traces/spec2k17/644.nab_s-5853B.champsimtrace.xz
Basic BTB sets: 1024 ways: 8 indirect buffer size: 4096 RAS size: 64
cpu0_L1D next line prefetcher
cpu0_L2C IP-based stride prefetcher
Initialize Hawkeye state
WARNING: The extended signature CACHE::prefetch_line(ip, base_addr, pf_addr, fill_this_level, prefetch_metadata) is deprecated.
WARNING: Use CACHE::prefetch_line(pf_addr, fill_this_level, prefetch_metadata) instead.

Warmup complete CPU 0 instructions: 1000004 cycles: 250095 (Simulation time: 0 hr 0 min 3 sec) 

Heartbeat CPU 0 instructions: 10000001 cycles: 6605555 heartbeat IPC: 1.51388 cumulative IPC: 1.4161 (Simulation time: 0 hr 0 min 51 sec) 
Heartbeat CPU 0 instructions: 20000001 cycles: 13686263 heartbeat IPC: 1.41229 cumulative IPC: 1.41409 (Simulation time: 0 hr 1 min 47 sec) 
Heartbeat CPU 0 instructions: 30000001 cycles: 20737275 heartbeat IPC: 1.41824 cumulative IPC: 1.41552 (Simulation time: 0 hr 2 min 41 sec) 
Heartbeat CPU 0 instructions: 40000002 cycles: 27798450 heartbeat IPC: 1.4162 cumulative IPC: 1.41569 (Simulation time: 0 hr 3 min 34 sec) 
Heartbeat CPU 0 instructions: 50000004 cycles: 34863562 heartbeat IPC: 1.41541 cumulative IPC: 1.41563 (Simulation time: 0 hr 4 min 27 sec) 
Heartbeat CPU 0 instructions: 60000000 cycles: 41941345 heartbeat IPC: 1.41287 cumulative IPC: 1.41516 (Simulation time: 0 hr 5 min 20 sec) 
Heartbeat CPU 0 instructions: 70000000 cycles: 48992871 heartbeat IPC: 1.41813 cumulative IPC: 1.41559 (Simulation time: 0 hr 6 min 14 sec) 
Heartbeat CPU 0 instructions: 80000003 cycles: 56051784 heartbeat IPC: 1.41665 cumulative IPC: 1.41573 (Simulation time: 0 hr 7 min 10 sec) 
Heartbeat CPU 0 instructions: 90000002 cycles: 63118572 heartbeat IPC: 1.41507 cumulative IPC: 1.41565 (Simulation time: 0 hr 8 min 5 sec) 
Heartbeat CPU 0 instructions: 100000000 cycles: 70187128 heartbeat IPC: 1.41472 cumulative IPC: 1.41556 (Simulation time: 0 hr 9 min 0 sec) 
Heartbeat CPU 0 instructions: 110000000 cycles: 77244136 heartbeat IPC: 1.41703 cumulative IPC: 1.41569 (Simulation time: 0 hr 9 min 55 sec) 
Heartbeat CPU 0 instructions: 120000004 cycles: 84297514 heartbeat IPC: 1.41776 cumulative IPC: 1.41587 (Simulation time: 0 hr 10 min 51 sec) 
Heartbeat CPU 0 instructions: 130000004 cycles: 91340053 heartbeat IPC: 1.41994 cumulative IPC: 1.41618 (Simulation time: 0 hr 11 min 47 sec) 
Heartbeat CPU 0 instructions: 140000001 cycles: 98375171 heartbeat IPC: 1.42144 cumulative IPC: 1.41656 (Simulation time: 0 hr 12 min 44 sec) 
Heartbeat CPU 0 instructions: 150000004 cycles: 105417591 heartbeat IPC: 1.41997 cumulative IPC: 1.41679 (Simulation time: 0 hr 13 min 44 sec) 
Heartbeat CPU 0 instructions: 160000000 cycles: 112480958 heartbeat IPC: 1.41575 cumulative IPC: 1.41672 (Simulation time: 0 hr 14 min 42 sec) 
Heartbeat CPU 0 instructions: 170000004 cycles: 119554029 heartbeat IPC: 1.41381 cumulative IPC: 1.41655 (Simulation time: 0 hr 15 min 41 sec) 
Heartbeat CPU 0 instructions: 180000003 cycles: 126611343 heartbeat IPC: 1.41697 cumulative IPC: 1.41657 (Simulation time: 0 hr 16 min 39 sec) 
Heartbeat CPU 0 instructions: 190000001 cycles: 133682372 heartbeat IPC: 1.41422 cumulative IPC: 1.41645 (Simulation time: 0 hr 17 min 34 sec) 
Heartbeat CPU 0 instructions: 200000004 cycles: 140733934 heartbeat IPC: 1.41813 cumulative IPC: 1.41653 (Simulation time: 0 hr 18 min 33 sec) 
Heartbeat CPU 0 instructions: 210000002 cycles: 147790036 heartbeat IPC: 1.41721 cumulative IPC: 1.41657 (Simulation time: 0 hr 19 min 34 sec) 
Heartbeat CPU 0 instructions: 220000003 cycles: 154869215 heartbeat IPC: 1.41259 cumulative IPC: 1.41638 (Simulation time: 0 hr 20 min 35 sec) 
Heartbeat CPU 0 instructions: 230000001 cycles: 161916658 heartbeat IPC: 1.41895 cumulative IPC: 1.4165 (Simulation time: 0 hr 21 min 34 sec) 
Heartbeat CPU 0 instructions: 240000001 cycles: 168989264 heartbeat IPC: 1.41391 cumulative IPC: 1.41639 (Simulation time: 0 hr 22 min 33 sec) 
Heartbeat CPU 0 instructions: 250000002 cycles: 176082042 heartbeat IPC: 1.40988 cumulative IPC: 1.41612 (Simulation time: 0 hr 23 min 33 sec) 
Heartbeat CPU 0 instructions: 260000000 cycles: 183156763 heartbeat IPC: 1.41348 cumulative IPC: 1.41602 (Simulation time: 0 hr 24 min 32 sec) 
Heartbeat CPU 0 instructions: 270000002 cycles: 190205371 heartbeat IPC: 1.41872 cumulative IPC: 1.41612 (Simulation time: 0 hr 25 min 28 sec) 
Heartbeat CPU 0 instructions: 280000002 cycles: 197254745 heartbeat IPC: 1.41857 cumulative IPC: 1.41621 (Simulation time: 0 hr 26 min 24 sec) 
Heartbeat CPU 0 instructions: 290000000 cycles: 204310366 heartbeat IPC: 1.41731 cumulative IPC: 1.41625 (Simulation time: 0 hr 27 min 19 sec) 
Heartbeat CPU 0 instructions: 300000000 cycles: 211371313 heartbeat IPC: 1.41624 cumulative IPC: 1.41625 (Simulation time: 0 hr 28 min 14 sec) 
Heartbeat CPU 0 instructions: 310000004 cycles: 218461037 heartbeat IPC: 1.41049 cumulative IPC: 1.41606 (Simulation time: 0 hr 29 min 7 sec) 
Heartbeat CPU 0 instructions: 320000001 cycles: 225549187 heartbeat IPC: 1.4108 cumulative IPC: 1.4159 (Simulation time: 0 hr 30 min 2 sec) 
Heartbeat CPU 0 instructions: 330000000 cycles: 232718552 heartbeat IPC: 1.39482 cumulative IPC: 1.41525 (Simulation time: 0 hr 30 min 58 sec) 
Heartbeat CPU 0 instructions: 340000000 cycles: 239815147 heartbeat IPC: 1.40913 cumulative IPC: 1.41506 (Simulation time: 0 hr 31 min 51 sec) 
Heartbeat CPU 0 instructions: 350000000 cycles: 246919209 heartbeat IPC: 1.40765 cumulative IPC: 1.41485 (Simulation time: 0 hr 32 min 45 sec) 
Heartbeat CPU 0 instructions: 360000003 cycles: 254001144 heartbeat IPC: 1.41204 cumulative IPC: 1.41477 (Simulation time: 0 hr 33 min 39 sec) 
Heartbeat CPU 0 instructions: 370000003 cycles: 261091764 heartbeat IPC: 1.41031 cumulative IPC: 1.41465 (Simulation time: 0 hr 34 min 32 sec) 
Heartbeat CPU 0 instructions: 380000004 cycles: 268180140 heartbeat IPC: 1.41076 cumulative IPC: 1.41455 (Simulation time: 0 hr 35 min 22 sec) 
Heartbeat CPU 0 instructions: 390000004 cycles: 275251988 heartbeat IPC: 1.41406 cumulative IPC: 1.41454 (Simulation time: 0 hr 36 min 14 sec) 
Heartbeat CPU 0 instructions: 400000002 cycles: 282311515 heartbeat IPC: 1.41653 cumulative IPC: 1.41459 (Simulation time: 0 hr 37 min 9 sec) 
Heartbeat CPU 0 instructions: 410000003 cycles: 289369194 heartbeat IPC: 1.4169 cumulative IPC: 1.41464 (Simulation time: 0 hr 38 min 4 sec) 
Heartbeat CPU 0 instructions: 420000000 cycles: 296450496 heartbeat IPC: 1.41217 cumulative IPC: 1.41458 (Simulation time: 0 hr 38 min 57 sec) 
Heartbeat CPU 0 instructions: 430000001 cycles: 303528324 heartbeat IPC: 1.41286 cumulative IPC: 1.41454 (Simulation time: 0 hr 39 min 48 sec) 
Heartbeat CPU 0 instructions: 440000002 cycles: 310628662 heartbeat IPC: 1.40838 cumulative IPC: 1.4144 (Simulation time: 0 hr 40 min 40 sec) 
Heartbeat CPU 0 instructions: 450000002 cycles: 317732761 heartbeat IPC: 1.40764 cumulative IPC: 1.41425 (Simulation time: 0 hr 41 min 32 sec) 
Heartbeat CPU 0 instructions: 460000003 cycles: 324847979 heartbeat IPC: 1.40544 cumulative IPC: 1.41406 (Simulation time: 0 hr 42 min 24 sec) 
Heartbeat CPU 0 instructions: 470000003 cycles: 331987168 heartbeat IPC: 1.40072 cumulative IPC: 1.41377 (Simulation time: 0 hr 43 min 18 sec) 
Heartbeat CPU 0 instructions: 480000001 cycles: 339123578 heartbeat IPC: 1.40126 cumulative IPC: 1.41351 (Simulation time: 0 hr 44 min 9 sec) 
Heartbeat CPU 0 instructions: 490000003 cycles: 346240096 heartbeat IPC: 1.40518 cumulative IPC: 1.41334 (Simulation time: 0 hr 45 min 0 sec) 
Heartbeat CPU 0 instructions: 500000000 cycles: 353402450 heartbeat IPC: 1.39619 cumulative IPC: 1.41299 (Simulation time: 0 hr 45 min 52 sec) 
Heartbeat CPU 0 instructions: 510000000 cycles: 360560383 heartbeat IPC: 1.39705 cumulative IPC: 1.41267 (Simulation time: 0 hr 46 min 41 sec) 
Heartbeat CPU 0 instructions: 520000000 cycles: 367756807 heartbeat IPC: 1.38958 cumulative IPC: 1.41222 (Simulation time: 0 hr 47 min 35 sec) 
Heartbeat CPU 0 instructions: 530000003 cycles: 374906413 heartbeat IPC: 1.39868 cumulative IPC: 1.41196 (Simulation time: 0 hr 48 min 26 sec) 
Heartbeat CPU 0 instructions: 540000003 cycles: 382035719 heartbeat IPC: 1.40266 cumulative IPC: 1.41179 (Simulation time: 0 hr 49 min 17 sec) 
Heartbeat CPU 0 instructions: 550000002 cycles: 389175856 heartbeat IPC: 1.40053 cumulative IPC: 1.41158 (Simulation time: 0 hr 50 min 9 sec) 
Heartbeat CPU 0 instructions: 560000001 cycles: 396305017 heartbeat IPC: 1.40269 cumulative IPC: 1.41142 (Simulation time: 0 hr 51 min 0 sec) 
Heartbeat CPU 0 instructions: 570000002 cycles: 403440887 heartbeat IPC: 1.40137 cumulative IPC: 1.41124 (Simulation time: 0 hr 51 min 53 sec) 
Heartbeat CPU 0 instructions: 580000000 cycles: 410542995 heartbeat IPC: 1.40803 cumulative IPC: 1.41119 (Simulation time: 0 hr 52 min 43 sec) 
Heartbeat CPU 0 instructions: 590000001 cycles: 417701675 heartbeat IPC: 1.39691 cumulative IPC: 1.41094 (Simulation time: 0 hr 53 min 32 sec) 
Heartbeat CPU 0 instructions: 600000003 cycles: 424815367 heartbeat IPC: 1.40574 cumulative IPC: 1.41085 (Simulation time: 0 hr 54 min 21 sec) 
Heartbeat CPU 0 instructions: 610000001 cycles: 431952114 heartbeat IPC: 1.4012 cumulative IPC: 1.4107 (Simulation time: 0 hr 55 min 11 sec) 
Heartbeat CPU 0 instructions: 620000000 cycles: 439069258 heartbeat IPC: 1.40506 cumulative IPC: 1.4106 (Simulation time: 0 hr 56 min 0 sec) 
Heartbeat CPU 0 instructions: 630000002 cycles: 446230798 heartbeat IPC: 1.39635 cumulative IPC: 1.41037 (Simulation time: 0 hr 56 min 49 sec) 
Heartbeat CPU 0 instructions: 640000000 cycles: 453367141 heartbeat IPC: 1.40128 cumulative IPC: 1.41023 (Simulation time: 0 hr 57 min 38 sec) 
Heartbeat CPU 0 instructions: 650000002 cycles: 460513502 heartbeat IPC: 1.39931 cumulative IPC: 1.41006 (Simulation time: 0 hr 58 min 28 sec) 
Heartbeat CPU 0 instructions: 660000000 cycles: 467672987 heartbeat IPC: 1.39675 cumulative IPC: 1.40986 (Simulation time: 0 hr 59 min 19 sec) 
Heartbeat CPU 0 instructions: 670000004 cycles: 474864004 heartbeat IPC: 1.39062 cumulative IPC: 1.40957 (Simulation time: 1 hr 0 min 8 sec) 
Heartbeat CPU 0 instructions: 680000000 cycles: 482048431 heartbeat IPC: 1.3919 cumulative IPC: 1.4093 (Simulation time: 1 hr 0 min 58 sec) 
Heartbeat CPU 0 instructions: 690000001 cycles: 489197907 heartbeat IPC: 1.3987 cumulative IPC: 1.40915 (Simulation time: 1 hr 1 min 46 sec) 
Heartbeat CPU 0 instructions: 700000004 cycles: 496364801 heartbeat IPC: 1.39531 cumulative IPC: 1.40895 (Simulation time: 1 hr 2 min 33 sec) 
Heartbeat CPU 0 instructions: 710000001 cycles: 503583613 heartbeat IPC: 1.38527 cumulative IPC: 1.40861 (Simulation time: 1 hr 3 min 20 sec) 
Heartbeat CPU 0 instructions: 720000002 cycles: 510880626 heartbeat IPC: 1.37042 cumulative IPC: 1.40806 (Simulation time: 1 hr 4 min 5 sec) 
Heartbeat CPU 0 instructions: 730000001 cycles: 518121096 heartbeat IPC: 1.38113 cumulative IPC: 1.40769 (Simulation time: 1 hr 4 min 51 sec) 
Heartbeat CPU 0 instructions: 740000000 cycles: 525279337 heartbeat IPC: 1.39699 cumulative IPC: 1.40754 (Simulation time: 1 hr 5 min 35 sec) 
Heartbeat CPU 0 instructions: 750000003 cycles: 532459590 heartbeat IPC: 1.39271 cumulative IPC: 1.40734 (Simulation time: 1 hr 6 min 20 sec) 
Heartbeat CPU 0 instructions: 760000001 cycles: 539595461 heartbeat IPC: 1.40137 cumulative IPC: 1.40726 (Simulation time: 1 hr 7 min 3 sec) 
Heartbeat CPU 0 instructions: 770000001 cycles: 546728057 heartbeat IPC: 1.40201 cumulative IPC: 1.40719 (Simulation time: 1 hr 7 min 47 sec) 
Heartbeat CPU 0 instructions: 780000002 cycles: 553850553 heartbeat IPC: 1.404 cumulative IPC: 1.40715 (Simulation time: 1 hr 8 min 32 sec) 
Heartbeat CPU 0 instructions: 790000001 cycles: 560934858 heartbeat IPC: 1.41157 cumulative IPC: 1.40721 (Simulation time: 1 hr 9 min 16 sec) 
Heartbeat CPU 0 instructions: 800000000 cycles: 568045630 heartbeat IPC: 1.40632 cumulative IPC: 1.4072 (Simulation time: 1 hr 10 min 0 sec) 
Heartbeat CPU 0 instructions: 810000004 cycles: 575134515 heartbeat IPC: 1.41066 cumulative IPC: 1.40724 (Simulation time: 1 hr 10 min 41 sec) 
Heartbeat CPU 0 instructions: 820000000 cycles: 582182871 heartbeat IPC: 1.41877 cumulative IPC: 1.40738 (Simulation time: 1 hr 11 min 24 sec) 
Heartbeat CPU 0 instructions: 830000001 cycles: 589243082 heartbeat IPC: 1.41639 cumulative IPC: 1.40749 (Simulation time: 1 hr 12 min 6 sec) 
Heartbeat CPU 0 instructions: 840000000 cycles: 596305477 heartbeat IPC: 1.41595 cumulative IPC: 1.40759 (Simulation time: 1 hr 12 min 49 sec) 
Heartbeat CPU 0 instructions: 850000003 cycles: 603367324 heartbeat IPC: 1.41606 cumulative IPC: 1.40769 (Simulation time: 1 hr 13 min 32 sec) 
Heartbeat CPU 0 instructions: 860000004 cycles: 610446608 heartbeat IPC: 1.41257 cumulative IPC: 1.40774 (Simulation time: 1 hr 14 min 14 sec) 
Heartbeat CPU 0 instructions: 870000002 cycles: 617502079 heartbeat IPC: 1.41734 cumulative IPC: 1.40785 (Simulation time: 1 hr 14 min 56 sec) 
Heartbeat CPU 0 instructions: 880000000 cycles: 624579828 heartbeat IPC: 1.41288 cumulative IPC: 1.40791 (Simulation time: 1 hr 15 min 37 sec) 
Heartbeat CPU 0 instructions: 890000000 cycles: 631632843 heartbeat IPC: 1.41783 cumulative IPC: 1.40802 (Simulation time: 1 hr 16 min 20 sec) 
Heartbeat CPU 0 instructions: 900000000 cycles: 638694076 heartbeat IPC: 1.41618 cumulative IPC: 1.40811 (Simulation time: 1 hr 17 min 2 sec) 
Heartbeat CPU 0 instructions: 910000001 cycles: 645779757 heartbeat IPC: 1.4113 cumulative IPC: 1.40815 (Simulation time: 1 hr 17 min 44 sec) 
Heartbeat CPU 0 instructions: 920000004 cycles: 652919224 heartbeat IPC: 1.40067 cumulative IPC: 1.40806 (Simulation time: 1 hr 18 min 26 sec) 
Heartbeat CPU 0 instructions: 930000000 cycles: 660111147 heartbeat IPC: 1.39045 cumulative IPC: 1.40787 (Simulation time: 1 hr 19 min 9 sec) 
Heartbeat CPU 0 instructions: 940000000 cycles: 667301395 heartbeat IPC: 1.39077 cumulative IPC: 1.40769 (Simulation time: 1 hr 19 min 51 sec) 
Heartbeat CPU 0 instructions: 950000000 cycles: 674470308 heartbeat IPC: 1.39491 cumulative IPC: 1.40755 (Simulation time: 1 hr 20 min 33 sec) 
Heartbeat CPU 0 instructions: 960000002 cycles: 681738149 heartbeat IPC: 1.37592 cumulative IPC: 1.40721 (Simulation time: 1 hr 21 min 16 sec) 
Heartbeat CPU 0 instructions: 970000000 cycles: 689007230 heartbeat IPC: 1.37569 cumulative IPC: 1.40688 (Simulation time: 1 hr 21 min 57 sec) 
Heartbeat CPU 0 instructions: 980000000 cycles: 696249056 heartbeat IPC: 1.38087 cumulative IPC: 1.40661 (Simulation time: 1 hr 22 min 39 sec) 
Heartbeat CPU 0 instructions: 990000003 cycles: 703461583 heartbeat IPC: 1.38648 cumulative IPC: 1.4064 (Simulation time: 1 hr 23 min 20 sec) 
Heartbeat CPU 0 instructions: 1000000001 cycles: 710645906 heartbeat IPC: 1.39192 cumulative IPC: 1.40626 (Simulation time: 1 hr 24 min 1 sec) 
Finished CPU 0 instructions: 1000000000 cycles: 711116703 cumulative IPC: 1.40624 (Simulation time: 1 hr 24 min 5 sec) 

ChampSim completed all CPUs

Region of Interest Statistics

CPU 0 cumulative IPC: 1.40624 instructions: 1000000000 cycles: 711116703
cpu0_DTLB TOTAL     ACCESS:  214470775  HIT:  213189082  MISS:    1281693
cpu0_DTLB LOAD      ACCESS:  162773263  HIT:  161495208  MISS:    1278055
cpu0_DTLB RFO       ACCESS:   51697512  HIT:   51693874  MISS:       3638
cpu0_DTLB PREFETCH  ACCESS:          0  HIT:          0  MISS:          0
cpu0_DTLB WRITEBACK ACCESS:          0  HIT:          0  MISS:          0
cpu0_DTLB TRANSLATION ACCESS:          0  HIT:          0  MISS:          0
cpu0_DTLB PREFETCH  REQUESTED:          0  ISSUED:          0  USEFUL:          0  USELESS:          0
cpu0_DTLB AVERAGE MISS LATENCY: 10.2952 cycles
cpu0_ITLB TOTAL     ACCESS:   88485850  HIT:   88485843  MISS:          7
cpu0_ITLB LOAD      ACCESS:   88485850  HIT:   88485843  MISS:          7
cpu0_ITLB RFO       ACCESS:          0  HIT:          0  MISS:          0
cpu0_ITLB PREFETCH  ACCESS:          0  HIT:          0  MISS:          0
cpu0_ITLB WRITEBACK ACCESS:          0  HIT:          0  MISS:          0
cpu0_ITLB TRANSLATION ACCESS:          0  HIT:          0  MISS:          0
cpu0_ITLB PREFETCH  REQUESTED:          0  ISSUED:          0  USEFUL:          0  USELESS:          0
cpu0_ITLB AVERAGE MISS LATENCY: 221.714 cycles
cpu0_L1I TOTAL     ACCESS:   27479911  HIT:   27479809  MISS:        102
cpu0_L1I LOAD      ACCESS:   27479911  HIT:   27479809  MISS:        102
cpu0_L1I RFO       ACCESS:          0  HIT:          0  MISS:          0
cpu0_L1I PREFETCH  ACCESS:          0  HIT:          0  MISS:          0
cpu0_L1I WRITEBACK ACCESS:          0  HIT:          0  MISS:          0
cpu0_L1I TRANSLATION ACCESS:          0  HIT:          0  MISS:          0
cpu0_L1I PREFETCH  REQUESTED:          0  ISSUED:          0  USEFUL:          0  USELESS:          0
cpu0_L1I AVERAGE MISS LATENCY: 317.451 cycles
cpu0_STLB TOTAL     ACCESS:    1281700  HIT:    1274141  MISS:       7559
cpu0_STLB LOAD      ACCESS:    1278062  HIT:    1270507  MISS:       7555
cpu0_STLB RFO       ACCESS:       3638  HIT:       3634  MISS:          4
cpu0_STLB PREFETCH  ACCESS:          0  HIT:          0  MISS:          0
cpu0_STLB WRITEBACK ACCESS:          0  HIT:          0  MISS:          0
cpu0_STLB TRANSLATION ACCESS:          0  HIT:          0  MISS:          0
cpu0_STLB PREFETCH  REQUESTED:          0  ISSUED:          0  USEFUL:          0  USELESS:          0
cpu0_STLB AVERAGE MISS LATENCY: 219.598 cycles
cpu0_L1D TOTAL     ACCESS:  512283695  HIT:  506623342  MISS:    5660353
cpu0_L1D LOAD      ACCESS:  204989779  HIT:  203998464  MISS:     991315
cpu0_L1D RFO       ACCESS:  110603604  HIT:  110596124  MISS:       7480
cpu0_L1D PREFETCH  ACCESS:  196682762  HIT:  192026808  MISS:    4655954
cpu0_L1D WRITEBACK ACCESS:          0  HIT:          0  MISS:          0
cpu0_L1D TRANSLATION ACCESS:       7550  HIT:       1946  MISS:       5604
cpu0_L1D PREFETCH  REQUESTED:  205003748  ISSUED:  196797814  USEFUL:    4461199  USELESS:     196049
cpu0_L1D AVERAGE MISS LATENCY: 21.7797 cycles
cpu0_L2C TOTAL     ACCESS:    7196942  HIT:    6928606  MISS:     268336
cpu0_L2C LOAD      ACCESS:     990152  HIT:     954614  MISS:      35538
cpu0_L2C RFO       ACCESS:       7455  HIT:       6413  MISS:       1042
cpu0_L2C PREFETCH  ACCESS:    4683630  HIT:    4452186  MISS:     231444
cpu0_L2C WRITEBACK ACCESS:    1510101  HIT:    1509996  MISS:        105
cpu0_L2C TRANSLATION ACCESS:       5604  HIT:       5397  MISS:        207
cpu0_L2C PREFETCH  REQUESTED:      26462  ISSUED:      26457  USEFUL:       3381  USELESS:       3385
cpu0_L2C AVERAGE MISS LATENCY: 193.14 cycles
LLC TOTAL     ACCESS:     287558  HIT:      66842  MISS:     220716
LLC LOAD      ACCESS:      35538  HIT:      23093  MISS:      12445
LLC RFO       ACCESS:       1042  HIT:       1005  MISS:         37
LLC PREFETCH  ACCESS:     231471  HIT:      27338  MISS:     204133
LLC WRITEBACK ACCESS:      19300  HIT:      15291  MISS:       4009
LLC TRANSLATION ACCESS:        207  HIT:        115  MISS:         92
LLC PREFETCH  REQUESTED:          0  ISSUED:          0  USEFUL:          0  USELESS:          0
LLC AVERAGE MISS LATENCY: 202.046 cycles
OPTgen accesses: 444
OPTgen hits: 481
OPTgen hit rate: 108.333



DRAM Statistics
 CHANNEL 0
 RQ ROW_BUFFER_HIT:     115108  ROW_BUFFER_MISS:     101599
 DBUS AVG_CONGESTED_CYCLE:    3.59117
 WQ ROW_BUFFER_HIT:        119  ROW_BUFFER_MISS:       5501  FULL:          0


CPU 0 Branch Prediction Accuracy: 97.1026% MPKI: 2.80502 Average ROB Occupancy at Mispredict: 126.87
Branch type MPKI
BRANCH_DIRECT_JUMP: 2.9e-05
BRANCH_INDIRECT: 3e-06
BRANCH_CONDITIONAL: 2.80491
BRANCH_DIRECT_CALL: 4.1e-05
BRANCH_INDIRECT_CALL: 0
BRANCH_RETURN: 3.9e-05

