
*** ChampSim Multicore Out-of-Order Simulator ***

Warmup Instructions: 1000000
Simulation Instructions: 1000000000
Number of CPUs: 1
Off-chip DRAM Size: 4 GiB Channels: 1 Width: 64-bit Data Rate: 3200 MT/s

VirtualMemory physical capacity: 8588881920 num_ppages: 2096895
VirtualMemory page size: 4096 log2_page_size: 12

CPU 0 runs tracer/pin/traces/spec2k6/436.cactusADM-1804B.champsimtrace.xz
Basic BTB sets: 1024 ways: 8 indirect buffer size: 4096 RAS size: 64
cpu0_L1D next line prefetcher
cpu0_L2C IP-based stride prefetcher
Initialize Hawkeye state
WARNING: The extended signature CACHE::prefetch_line(ip, base_addr, pf_addr, fill_this_level, prefetch_metadata) is deprecated.
WARNING: Use CACHE::prefetch_line(pf_addr, fill_this_level, prefetch_metadata) instead.

Warmup complete CPU 0 instructions: 1000003 cycles: 504593 (Simulation time: 0 hr 0 min 5 sec) 

Heartbeat CPU 0 instructions: 10000000 cycles: 7187909 heartbeat IPC: 1.39123 cumulative IPC: 1.34664 (Simulation time: 0 hr 1 min 15 sec) 
Heartbeat CPU 0 instructions: 20000002 cycles: 19791544 heartbeat IPC: 0.793422 cumulative IPC: 0.985122 (Simulation time: 0 hr 3 min 16 sec) 
Heartbeat CPU 0 instructions: 30000003 cycles: 27174242 heartbeat IPC: 1.35452 cumulative IPC: 1.08738 (Simulation time: 0 hr 4 min 42 sec) 
Heartbeat CPU 0 instructions: 40000003 cycles: 34557050 heartbeat IPC: 1.3545 cumulative IPC: 1.14529 (Simulation time: 0 hr 6 min 2 sec) 
Heartbeat CPU 0 instructions: 50000003 cycles: 49384996 heartbeat IPC: 0.674402 cumulative IPC: 1.00245 (Simulation time: 0 hr 8 min 3 sec) 
Heartbeat CPU 0 instructions: 60000002 cycles: 56752384 heartbeat IPC: 1.35733 cumulative IPC: 1.04893 (Simulation time: 0 hr 9 min 31 sec) 
Heartbeat CPU 0 instructions: 70000002 cycles: 71028119 heartbeat IPC: 0.700489 cumulative IPC: 0.978397 (Simulation time: 0 hr 11 min 51 sec) 
Heartbeat CPU 0 instructions: 80000000 cycles: 78369051 heartbeat IPC: 1.36222 cumulative IPC: 1.01458 (Simulation time: 0 hr 13 min 25 sec) 
Heartbeat CPU 0 instructions: 90000003 cycles: 92275233 heartbeat IPC: 0.719105 cumulative IPC: 0.969809 (Simulation time: 0 hr 15 min 45 sec) 
Heartbeat CPU 0 instructions: 100000001 cycles: 99587152 heartbeat IPC: 1.36763 cumulative IPC: 0.999167 (Simulation time: 0 hr 17 min 16 sec) 
Heartbeat CPU 0 instructions: 110000000 cycles: 113399940 heartbeat IPC: 0.723967 cumulative IPC: 0.965496 (Simulation time: 0 hr 19 min 29 sec) 
Heartbeat CPU 0 instructions: 120000004 cycles: 120708561 heartbeat IPC: 1.36825 cumulative IPC: 0.989984 (Simulation time: 0 hr 21 min 2 sec) 
Heartbeat CPU 0 instructions: 130000002 cycles: 129799392 heartbeat IPC: 1.10001 cumulative IPC: 0.99772 (Simulation time: 0 hr 22 min 48 sec) 
Heartbeat CPU 0 instructions: 140000000 cycles: 141936182 heartbeat IPC: 0.823941 cumulative IPC: 0.982807 (Simulation time: 0 hr 24 min 53 sec) 
Heartbeat CPU 0 instructions: 150000004 cycles: 149236231 heartbeat IPC: 1.36985 cumulative IPC: 1.0018 (Simulation time: 0 hr 26 min 30 sec) 
Heartbeat CPU 0 instructions: 160000004 cycles: 162852911 heartbeat IPC: 0.734393 cumulative IPC: 0.979376 (Simulation time: 0 hr 28 min 41 sec) 
Heartbeat CPU 0 instructions: 170000001 cycles: 170144963 heartbeat IPC: 1.37136 cumulative IPC: 0.996225 (Simulation time: 0 hr 30 min 14 sec) 
Heartbeat CPU 0 instructions: 180000001 cycles: 184330802 heartbeat IPC: 0.704928 cumulative IPC: 0.973746 (Simulation time: 0 hr 32 min 34 sec) 
Heartbeat CPU 0 instructions: 190000002 cycles: 191718697 heartbeat IPC: 1.35357 cumulative IPC: 0.988421 (Simulation time: 0 hr 34 min 14 sec) 
Heartbeat CPU 0 instructions: 200000004 cycles: 206164989 heartbeat IPC: 0.692219 cumulative IPC: 0.967615 (Simulation time: 0 hr 36 min 36 sec) 
Heartbeat CPU 0 instructions: 210000000 cycles: 213507130 heartbeat IPC: 1.362 cumulative IPC: 0.981209 (Simulation time: 0 hr 38 min 10 sec) 
Heartbeat CPU 0 instructions: 220000002 cycles: 224421931 heartbeat IPC: 0.916187 cumulative IPC: 0.97804 (Simulation time: 0 hr 40 min 8 sec) 
Heartbeat CPU 0 instructions: 230000000 cycles: 234952548 heartbeat IPC: 0.949612 cumulative IPC: 0.976763 (Simulation time: 0 hr 42 min 4 sec) 
Heartbeat CPU 0 instructions: 240000002 cycles: 242261279 heartbeat IPC: 1.36823 cumulative IPC: 0.988597 (Simulation time: 0 hr 43 min 37 sec) 
Heartbeat CPU 0 instructions: 250000002 cycles: 256040328 heartbeat IPC: 0.725739 cumulative IPC: 0.974423 (Simulation time: 0 hr 45 min 55 sec) 
Heartbeat CPU 0 instructions: 260000001 cycles: 263381449 heartbeat IPC: 1.36219 cumulative IPC: 0.985252 (Simulation time: 0 hr 47 min 29 sec) 
Heartbeat CPU 0 instructions: 270000003 cycles: 277414137 heartbeat IPC: 0.712622 cumulative IPC: 0.971436 (Simulation time: 0 hr 49 min 36 sec) 
Heartbeat CPU 0 instructions: 280000001 cycles: 284734298 heartbeat IPC: 1.36609 cumulative IPC: 0.9816 (Simulation time: 0 hr 50 min 59 sec) 
Heartbeat CPU 0 instructions: 290000000 cycles: 298024161 heartbeat IPC: 0.752453 cumulative IPC: 0.971365 (Simulation time: 0 hr 52 min 56 sec) 
Heartbeat CPU 0 instructions: 300000004 cycles: 305359194 heartbeat IPC: 1.36332 cumulative IPC: 0.980795 (Simulation time: 0 hr 54 min 20 sec) 
Heartbeat CPU 0 instructions: 310000002 cycles: 318126556 heartbeat IPC: 0.783247 cumulative IPC: 0.972855 (Simulation time: 0 hr 56 min 14 sec) 
Heartbeat CPU 0 instructions: 320000002 cycles: 326946124 heartbeat IPC: 1.13384 cumulative IPC: 0.977204 (Simulation time: 0 hr 57 min 43 sec) 
Heartbeat CPU 0 instructions: 330000003 cycles: 334314344 heartbeat IPC: 1.35718 cumulative IPC: 0.985591 (Simulation time: 0 hr 59 min 4 sec) 
Heartbeat CPU 0 instructions: 340000003 cycles: 348414781 heartbeat IPC: 0.709198 cumulative IPC: 0.974389 (Simulation time: 1 hr 0 min 58 sec) 
Heartbeat CPU 0 instructions: 350000002 cycles: 355742243 heartbeat IPC: 1.36473 cumulative IPC: 0.982441 (Simulation time: 1 hr 2 min 16 sec) 
Heartbeat CPU 0 instructions: 360000002 cycles: 369831753 heartbeat IPC: 0.709748 cumulative IPC: 0.972038 (Simulation time: 1 hr 4 min 10 sec) 
Heartbeat CPU 0 instructions: 370000001 cycles: 377191756 heartbeat IPC: 1.35869 cumulative IPC: 0.979593 (Simulation time: 1 hr 5 min 30 sec) 
Heartbeat CPU 0 instructions: 380000004 cycles: 391207436 heartbeat IPC: 0.713487 cumulative IPC: 0.970047 (Simulation time: 1 hr 7 min 24 sec) 
Heartbeat CPU 0 instructions: 390000003 cycles: 398554775 heartbeat IPC: 1.36104 cumulative IPC: 0.977264 (Simulation time: 1 hr 8 min 43 sec) 
Heartbeat CPU 0 instructions: 400000003 cycles: 412677793 heartbeat IPC: 0.708064 cumulative IPC: 0.96804 (Simulation time: 1 hr 10 min 33 sec) 
Heartbeat CPU 0 instructions: 410000003 cycles: 420060688 heartbeat IPC: 1.35448 cumulative IPC: 0.97484 (Simulation time: 1 hr 11 min 47 sec) 
Heartbeat CPU 0 instructions: 420000001 cycles: 427438356 heartbeat IPC: 1.35544 cumulative IPC: 0.981417 (Simulation time: 1 hr 13 min 1 sec) 
Heartbeat CPU 0 instructions: 430000003 cycles: 440841755 heartbeat IPC: 0.74608 cumulative IPC: 0.974253 (Simulation time: 1 hr 14 min 43 sec) 
Heartbeat CPU 0 instructions: 440000003 cycles: 448213923 heartbeat IPC: 1.35645 cumulative IPC: 0.980547 (Simulation time: 1 hr 15 min 57 sec) 
Heartbeat CPU 0 instructions: 450000002 cycles: 462391533 heartbeat IPC: 0.705337 cumulative IPC: 0.972099 (Simulation time: 1 hr 17 min 42 sec) 
Heartbeat CPU 0 instructions: 460000000 cycles: 469759788 heartbeat IPC: 1.35717 cumulative IPC: 0.978146 (Simulation time: 1 hr 18 min 56 sec) 
Heartbeat CPU 0 instructions: 470000002 cycles: 483323289 heartbeat IPC: 0.737273 cumulative IPC: 0.971379 (Simulation time: 1 hr 20 min 29 sec) 
Heartbeat CPU 0 instructions: 480000001 cycles: 490667985 heartbeat IPC: 1.36153 cumulative IPC: 0.977225 (Simulation time: 1 hr 21 min 31 sec) 
Heartbeat CPU 0 instructions: 490000002 cycles: 504452295 heartbeat IPC: 0.725463 cumulative IPC: 0.970339 (Simulation time: 1 hr 22 min 55 sec) 
Heartbeat CPU 0 instructions: 500000003 cycles: 511744554 heartbeat IPC: 1.37132 cumulative IPC: 0.976058 (Simulation time: 1 hr 23 min 55 sec) 
Heartbeat CPU 0 instructions: 510000000 cycles: 519028809 heartbeat IPC: 1.37282 cumulative IPC: 0.981632 (Simulation time: 1 hr 24 min 55 sec) 
Heartbeat CPU 0 instructions: 520000004 cycles: 533012419 heartbeat IPC: 0.715123 cumulative IPC: 0.974634 (Simulation time: 1 hr 26 min 20 sec) 
Heartbeat CPU 0 instructions: 530000004 cycles: 540345808 heartbeat IPC: 1.36363 cumulative IPC: 0.979918 (Simulation time: 1 hr 27 min 20 sec) 
Heartbeat CPU 0 instructions: 540000004 cycles: 554613237 heartbeat IPC: 0.700897 cumulative IPC: 0.972733 (Simulation time: 1 hr 28 min 44 sec) 
Heartbeat CPU 0 instructions: 550000001 cycles: 561987531 heartbeat IPC: 1.35606 cumulative IPC: 0.977768 (Simulation time: 1 hr 29 min 43 sec) 
Heartbeat CPU 0 instructions: 560000000 cycles: 575845644 heartbeat IPC: 0.721599 cumulative IPC: 0.971598 (Simulation time: 1 hr 31 min 5 sec) 
Heartbeat CPU 0 instructions: 570000000 cycles: 583199066 heartbeat IPC: 1.35991 cumulative IPC: 0.976498 (Simulation time: 1 hr 32 min 4 sec) 
Heartbeat CPU 0 instructions: 580000003 cycles: 597049645 heartbeat IPC: 0.721992 cumulative IPC: 0.970589 (Simulation time: 1 hr 33 min 25 sec) 
Heartbeat CPU 0 instructions: 590000000 cycles: 604413301 heartbeat IPC: 1.35802 cumulative IPC: 0.975313 (Simulation time: 1 hr 34 min 23 sec) 
Heartbeat CPU 0 instructions: 600000003 cycles: 611784489 heartbeat IPC: 1.35663 cumulative IPC: 0.979911 (Simulation time: 1 hr 35 min 22 sec) 
Heartbeat CPU 0 instructions: 610000002 cycles: 626143384 heartbeat IPC: 0.696432 cumulative IPC: 0.973405 (Simulation time: 1 hr 36 min 44 sec) 
Heartbeat CPU 0 instructions: 620000001 cycles: 633490141 heartbeat IPC: 1.36114 cumulative IPC: 0.977905 (Simulation time: 1 hr 37 min 43 sec) 
Heartbeat CPU 0 instructions: 630000002 cycles: 647094331 heartbeat IPC: 0.735068 cumulative IPC: 0.972796 (Simulation time: 1 hr 39 min 3 sec) 
Heartbeat CPU 0 instructions: 640000000 cycles: 654435539 heartbeat IPC: 1.36217 cumulative IPC: 0.977167 (Simulation time: 1 hr 40 min 1 sec) 
Heartbeat CPU 0 instructions: 650000001 cycles: 667882761 heartbeat IPC: 0.743648 cumulative IPC: 0.972462 (Simulation time: 1 hr 41 min 20 sec) 
Heartbeat CPU 0 instructions: 660000002 cycles: 675216760 heartbeat IPC: 1.36351 cumulative IPC: 0.976713 (Simulation time: 1 hr 42 min 18 sec) 
Heartbeat CPU 0 instructions: 670000000 cycles: 689499666 heartbeat IPC: 0.700137 cumulative IPC: 0.970979 (Simulation time: 1 hr 43 min 40 sec) 
Heartbeat CPU 0 instructions: 680000003 cycles: 696857321 heartbeat IPC: 1.35913 cumulative IPC: 0.975081 (Simulation time: 1 hr 44 min 38 sec) 
Heartbeat CPU 0 instructions: 690000000 cycles: 704217380 heartbeat IPC: 1.35868 cumulative IPC: 0.979093 (Simulation time: 1 hr 45 min 37 sec) 
Heartbeat CPU 0 instructions: 700000001 cycles: 718032919 heartbeat IPC: 0.723823 cumulative IPC: 0.974178 (Simulation time: 1 hr 46 min 58 sec) 
Heartbeat CPU 0 instructions: 710000004 cycles: 725332430 heartbeat IPC: 1.36996 cumulative IPC: 0.978163 (Simulation time: 1 hr 47 min 56 sec) 
Heartbeat CPU 0 instructions: 720000001 cycles: 739560023 heartbeat IPC: 0.702859 cumulative IPC: 0.972863 (Simulation time: 1 hr 49 min 18 sec) 
Heartbeat CPU 0 instructions: 730000000 cycles: 746887681 heartbeat IPC: 1.36469 cumulative IPC: 0.97671 (Simulation time: 1 hr 50 min 16 sec) 
Heartbeat CPU 0 instructions: 740000000 cycles: 760754359 heartbeat IPC: 0.721153 cumulative IPC: 0.972049 (Simulation time: 1 hr 51 min 37 sec) 
Heartbeat CPU 0 instructions: 750000003 cycles: 768017462 heartbeat IPC: 1.37682 cumulative IPC: 0.975879 (Simulation time: 1 hr 52 min 34 sec) 
Heartbeat CPU 0 instructions: 760000003 cycles: 782070676 heartbeat IPC: 0.711581 cumulative IPC: 0.971127 (Simulation time: 1 hr 53 min 56 sec) 
Heartbeat CPU 0 instructions: 770000004 cycles: 789378650 heartbeat IPC: 1.36837 cumulative IPC: 0.974807 (Simulation time: 1 hr 54 min 54 sec) 
Heartbeat CPU 0 instructions: 780000003 cycles: 796697016 heartbeat IPC: 1.36643 cumulative IPC: 0.978407 (Simulation time: 1 hr 55 min 52 sec) 
Heartbeat CPU 0 instructions: 790000003 cycles: 810883261 heartbeat IPC: 0.704908 cumulative IPC: 0.973619 (Simulation time: 1 hr 57 min 14 sec) 
Heartbeat CPU 0 instructions: 800000001 cycles: 818196254 heartbeat IPC: 1.36743 cumulative IPC: 0.977141 (Simulation time: 1 hr 58 min 12 sec) 
Heartbeat CPU 0 instructions: 810000001 cycles: 832163567 heartbeat IPC: 0.715957 cumulative IPC: 0.972754 (Simulation time: 1 hr 59 min 33 sec) 
Heartbeat CPU 0 instructions: 820000001 cycles: 839485632 heartbeat IPC: 1.36573 cumulative IPC: 0.976184 (Simulation time: 2 hr 0 min 31 sec) 
Heartbeat CPU 0 instructions: 830000003 cycles: 853779467 heartbeat IPC: 0.699602 cumulative IPC: 0.971551 (Simulation time: 2 hr 1 min 54 sec) 
Heartbeat CPU 0 instructions: 840000004 cycles: 861087963 heartbeat IPC: 1.36827 cumulative IPC: 0.97492 (Simulation time: 2 hr 2 min 52 sec) 
Heartbeat CPU 0 instructions: 850000000 cycles: 874678313 heartbeat IPC: 0.735816 cumulative IPC: 0.971203 (Simulation time: 2 hr 4 min 11 sec) 
Heartbeat CPU 0 instructions: 860000003 cycles: 881985325 heartbeat IPC: 1.36855 cumulative IPC: 0.974497 (Simulation time: 2 hr 5 min 9 sec) 
Heartbeat CPU 0 instructions: 870000000 cycles: 890188145 heartbeat IPC: 1.21909 cumulative IPC: 0.976752 (Simulation time: 2 hr 6 min 10 sec) 
Heartbeat CPU 0 instructions: 880000002 cycles: 903532656 heartbeat IPC: 0.749372 cumulative IPC: 0.973392 (Simulation time: 2 hr 7 min 29 sec) 
Heartbeat CPU 0 instructions: 890000000 cycles: 910844653 heartbeat IPC: 1.36762 cumulative IPC: 0.976558 (Simulation time: 2 hr 8 min 27 sec) 
Heartbeat CPU 0 instructions: 900000004 cycles: 924639416 heartbeat IPC: 0.724913 cumulative IPC: 0.972802 (Simulation time: 2 hr 9 min 48 sec) 
Heartbeat CPU 0 instructions: 910000000 cycles: 931925106 heartbeat IPC: 1.37255 cumulative IPC: 0.975929 (Simulation time: 2 hr 10 min 46 sec) 
Heartbeat CPU 0 instructions: 920000004 cycles: 946257253 heartbeat IPC: 0.697732 cumulative IPC: 0.971713 (Simulation time: 2 hr 12 min 8 sec) 
Heartbeat CPU 0 instructions: 930000004 cycles: 953621374 heartbeat IPC: 1.35794 cumulative IPC: 0.974697 (Simulation time: 2 hr 13 min 6 sec) 
Heartbeat CPU 0 instructions: 940000003 cycles: 967589589 heartbeat IPC: 0.715911 cumulative IPC: 0.970959 (Simulation time: 2 hr 14 min 27 sec) 
Heartbeat CPU 0 instructions: 950000001 cycles: 974926935 heartbeat IPC: 1.36289 cumulative IPC: 0.97391 (Simulation time: 2 hr 15 min 26 sec) 
Heartbeat CPU 0 instructions: 960000004 cycles: 985180918 heartbeat IPC: 0.975231 cumulative IPC: 0.973924 (Simulation time: 2 hr 16 min 34 sec) 
Heartbeat CPU 0 instructions: 970000002 cycles: 996219979 heartbeat IPC: 0.905874 cumulative IPC: 0.97317 (Simulation time: 2 hr 17 min 45 sec) 
Heartbeat CPU 0 instructions: 980000000 cycles: 1003504730 heartbeat IPC: 1.37273 cumulative IPC: 0.976072 (Simulation time: 2 hr 18 min 43 sec) 
Heartbeat CPU 0 instructions: 990000001 cycles: 1017502229 heartbeat IPC: 0.714413 cumulative IPC: 0.97247 (Simulation time: 2 hr 20 min 4 sec) 
Heartbeat CPU 0 instructions: 1000000003 cycles: 1024813651 heartbeat IPC: 1.36772 cumulative IPC: 0.975292 (Simulation time: 2 hr 21 min 2 sec) 
Finished CPU 0 instructions: 1000000002 cycles: 1025041093 cumulative IPC: 0.975571 (Simulation time: 2 hr 21 min 7 sec) 

ChampSim completed all CPUs

Region of Interest Statistics

CPU 0 cumulative IPC: 0.975571 instructions: 1000000002 cycles: 1025041093
cpu0_DTLB TOTAL     ACCESS:  323237253  HIT:  296443133  MISS:   26794120
cpu0_DTLB LOAD      ACCESS:  253800537  HIT:  234923702  MISS:   18876835
cpu0_DTLB RFO       ACCESS:   69436716  HIT:   61519431  MISS:    7917285
cpu0_DTLB PREFETCH  ACCESS:          0  HIT:          0  MISS:          0
cpu0_DTLB WRITEBACK ACCESS:          0  HIT:          0  MISS:          0
cpu0_DTLB TRANSLATION ACCESS:          0  HIT:          0  MISS:          0
cpu0_DTLB PREFETCH  REQUESTED:          0  ISSUED:          0  USEFUL:          0  USELESS:          0
cpu0_DTLB AVERAGE MISS LATENCY: 14.1073 cycles
cpu0_ITLB TOTAL     ACCESS:   13846775  HIT:   13846774  MISS:          1
cpu0_ITLB LOAD      ACCESS:   13846775  HIT:   13846774  MISS:          1
cpu0_ITLB RFO       ACCESS:          0  HIT:          0  MISS:          0
cpu0_ITLB PREFETCH  ACCESS:          0  HIT:          0  MISS:          0
cpu0_ITLB WRITEBACK ACCESS:          0  HIT:          0  MISS:          0
cpu0_ITLB TRANSLATION ACCESS:          0  HIT:          0  MISS:          0
cpu0_ITLB PREFETCH  REQUESTED:          0  ISSUED:          0  USEFUL:          0  USELESS:          0
cpu0_ITLB AVERAGE MISS LATENCY: 557 cycles
cpu0_L1I TOTAL     ACCESS:   94996950  HIT:   94996880  MISS:         70
cpu0_L1I LOAD      ACCESS:   94996950  HIT:   94996880  MISS:         70
cpu0_L1I RFO       ACCESS:          0  HIT:          0  MISS:          0
cpu0_L1I PREFETCH  ACCESS:          0  HIT:          0  MISS:          0
cpu0_L1I WRITEBACK ACCESS:          0  HIT:          0  MISS:          0
cpu0_L1I TRANSLATION ACCESS:          0  HIT:          0  MISS:          0
cpu0_L1I PREFETCH  REQUESTED:          0  ISSUED:          0  USEFUL:          0  USELESS:          0
cpu0_L1I AVERAGE MISS LATENCY: 540.557 cycles
cpu0_STLB TOTAL     ACCESS:   26794121  HIT:   15366726  MISS:   11427395
cpu0_STLB LOAD      ACCESS:   18876836  HIT:   11813948  MISS:    7062888
cpu0_STLB RFO       ACCESS:    7917285  HIT:    3552778  MISS:    4364507
cpu0_STLB PREFETCH  ACCESS:          0  HIT:          0  MISS:          0
cpu0_STLB WRITEBACK ACCESS:          0  HIT:          0  MISS:          0
cpu0_STLB TRANSLATION ACCESS:          0  HIT:          0  MISS:          0
cpu0_STLB PREFETCH  REQUESTED:          0  ISSUED:          0  USEFUL:          0  USELESS:          0
cpu0_STLB AVERAGE MISS LATENCY: 11.4098 cycles
cpu0_L1D TOTAL     ACCESS:  830100433  HIT:  821007482  MISS:    9092951
cpu0_L1D LOAD      ACCESS:  352243644  HIT:  351248575  MISS:     995069
cpu0_L1D RFO       ACCESS:  151001653  HIT:  149475735  MISS:    1525918
cpu0_L1D PREFETCH  ACCESS:  315427828  HIT:  309033472  MISS:    6394356
cpu0_L1D WRITEBACK ACCESS:          0  HIT:          0  MISS:          0
cpu0_L1D TRANSLATION ACCESS:   11427308  HIT:   11249700  MISS:     177608
cpu0_L1D PREFETCH  REQUESTED:  352288524  ISSUED:  316115783  USEFUL:    6395195  USELESS:     212766
cpu0_L1D AVERAGE MISS LATENCY: 393.863 cycles
cpu0_L2C TOTAL     ACCESS:   10856883  HIT:    5562312  MISS:    5294571
cpu0_L2C LOAD      ACCESS:     782037  HIT:     515090  MISS:     266947
cpu0_L2C RFO       ACCESS:    1525154  HIT:      20865  MISS:    1504289
cpu0_L2C PREFETCH  ACCESS:    6782300  HIT:    3266402  MISS:    3515898
cpu0_L2C WRITEBACK ACCESS:    1589784  HIT:    1586942  MISS:       2842
cpu0_L2C TRANSLATION ACCESS:     177608  HIT:     173013  MISS:       4595
cpu0_L2C PREFETCH  REQUESTED:     197998  ISSUED:     197911  USEFUL:      20478  USELESS:      32411
cpu0_L2C AVERAGE MISS LATENCY: 713.933 cycles
LLC TOTAL     ACCESS:    6821399  HIT:    1085067  MISS:    5736332
LLC LOAD      ACCESS:     266946  HIT:      10608  MISS:     256338
LLC RFO       ACCESS:    1504289  HIT:      33861  MISS:    1470428
LLC PREFETCH  ACCESS:    3538307  HIT:     529789  MISS:    3008518
LLC WRITEBACK ACCESS:    1507262  HIT:     509599  MISS:     997663
LLC TRANSLATION ACCESS:       4595  HIT:       1210  MISS:       3385
LLC PREFETCH  REQUESTED:          0  ISSUED:          0  USEFUL:          0  USELESS:          0
LLC AVERAGE MISS LATENCY: 639.836 cycles
OPTgen accesses: 29126
OPTgen hits: 10207
OPTgen hit rate: 35.0443



DRAM Statistics
 CHANNEL 0
 RQ ROW_BUFFER_HIT:      22967  ROW_BUFFER_MISS:    4715676
 DBUS AVG_CONGESTED_CYCLE:    3.97156
 WQ ROW_BUFFER_HIT:      85781  ROW_BUFFER_MISS:    1410062  FULL:          0


CPU 0 Branch Prediction Accuracy: 99.1659% MPKI: 0.010731 Average ROB Occupancy at Mispredict: 127.926
Branch type MPKI
BRANCH_DIRECT_JUMP: 1e-06
BRANCH_INDIRECT: 0
BRANCH_CONDITIONAL: 0.01073
BRANCH_DIRECT_CALL: 0
BRANCH_INDIRECT_CALL: 0
BRANCH_RETURN: 0

