
*** ChampSim Multicore Out-of-Order Simulator ***

Warmup Instructions: 1000000
Simulation Instructions: 1000000000
Number of CPUs: 1
Off-chip DRAM Size: 4 GiB Channels: 1 Width: 64-bit Data Rate: 3200 MT/s

VirtualMemory physical capacity: 8588881920 num_ppages: 2096895
VirtualMemory page size: 4096 log2_page_size: 12

CPU 0 runs tracer/pin/traces/spec2k6/473.astar-153B.champsimtrace.xz
Basic BTB sets: 1024 ways: 8 indirect buffer size: 4096 RAS size: 64
cpu0_L1D next line prefetcher
cpu0_L2C IP-based stride prefetcher
Initialize Hawkeye state
WARNING: The extended signature CACHE::prefetch_line(ip, base_addr, pf_addr, fill_this_level, prefetch_metadata) is deprecated.
WARNING: Use CACHE::prefetch_line(pf_addr, fill_this_level, prefetch_metadata) instead.

Warmup complete CPU 0 instructions: 1000004 cycles: 250082 (Simulation time: 0 hr 0 min 3 sec) 

Heartbeat CPU 0 instructions: 10000004 cycles: 11575122 heartbeat IPC: 0.863922 cumulative IPC: 0.794699 (Simulation time: 0 hr 1 min 5 sec) 
Heartbeat CPU 0 instructions: 20000000 cycles: 22025472 heartbeat IPC: 0.956905 cumulative IPC: 0.872544 (Simulation time: 0 hr 2 min 6 sec) 
Heartbeat CPU 0 instructions: 30000000 cycles: 32480708 heartbeat IPC: 0.956459 cumulative IPC: 0.899765 (Simulation time: 0 hr 3 min 7 sec) 
Heartbeat CPU 0 instructions: 40000000 cycles: 42953904 heartbeat IPC: 0.954818 cumulative IPC: 0.913267 (Simulation time: 0 hr 4 min 8 sec) 
Heartbeat CPU 0 instructions: 50000000 cycles: 53255702 heartbeat IPC: 0.970704 cumulative IPC: 0.92443 (Simulation time: 0 hr 5 min 9 sec) 
Heartbeat CPU 0 instructions: 60000001 cycles: 63159062 heartbeat IPC: 1.00976 cumulative IPC: 0.937863 (Simulation time: 0 hr 6 min 7 sec) 
Heartbeat CPU 0 instructions: 70000001 cycles: 72789193 heartbeat IPC: 1.03841 cumulative IPC: 0.951211 (Simulation time: 0 hr 7 min 5 sec) 
Heartbeat CPU 0 instructions: 80000000 cycles: 82494841 heartbeat IPC: 1.03033 cumulative IPC: 0.960548 (Simulation time: 0 hr 8 min 3 sec) 
Heartbeat CPU 0 instructions: 90000000 cycles: 92126766 heartbeat IPC: 1.03821 cumulative IPC: 0.96869 (Simulation time: 0 hr 9 min 1 sec) 
Heartbeat CPU 0 instructions: 100000000 cycles: 102124276 heartbeat IPC: 1.00025 cumulative IPC: 0.971787 (Simulation time: 0 hr 9 min 59 sec) 
Heartbeat CPU 0 instructions: 110000002 cycles: 111747472 heartbeat IPC: 1.03916 cumulative IPC: 0.977601 (Simulation time: 0 hr 10 min 58 sec) 
Heartbeat CPU 0 instructions: 120000001 cycles: 121830876 heartbeat IPC: 0.991728 cumulative IPC: 0.978773 (Simulation time: 0 hr 11 min 59 sec) 
Heartbeat CPU 0 instructions: 130000001 cycles: 132500434 heartbeat IPC: 0.937246 cumulative IPC: 0.975423 (Simulation time: 0 hr 12 min 59 sec) 
Heartbeat CPU 0 instructions: 140000003 cycles: 142091913 heartbeat IPC: 1.04259 cumulative IPC: 0.979965 (Simulation time: 0 hr 13 min 56 sec) 
Heartbeat CPU 0 instructions: 150000000 cycles: 152160892 heartbeat IPC: 0.993149 cumulative IPC: 0.980839 (Simulation time: 0 hr 14 min 54 sec) 
Heartbeat CPU 0 instructions: 160000002 cycles: 162145423 heartbeat IPC: 1.00155 cumulative IPC: 0.982116 (Simulation time: 0 hr 15 min 52 sec) 
Heartbeat CPU 0 instructions: 170000003 cycles: 173140511 heartbeat IPC: 0.909497 cumulative IPC: 0.977498 (Simulation time: 0 hr 16 min 54 sec) 
Heartbeat CPU 0 instructions: 180000000 cycles: 183911242 heartbeat IPC: 0.928442 cumulative IPC: 0.974621 (Simulation time: 0 hr 17 min 56 sec) 
Heartbeat CPU 0 instructions: 190000000 cycles: 193655748 heartbeat IPC: 1.02622 cumulative IPC: 0.977221 (Simulation time: 0 hr 18 min 55 sec) 
Heartbeat CPU 0 instructions: 200000002 cycles: 203854962 heartbeat IPC: 0.980468 cumulative IPC: 0.977383 (Simulation time: 0 hr 19 min 54 sec) 
Heartbeat CPU 0 instructions: 210000004 cycles: 215100306 heartbeat IPC: 0.889257 cumulative IPC: 0.972771 (Simulation time: 0 hr 20 min 56 sec) 
Heartbeat CPU 0 instructions: 220000001 cycles: 225771131 heartbeat IPC: 0.937134 cumulative IPC: 0.971085 (Simulation time: 0 hr 21 min 55 sec) 
Heartbeat CPU 0 instructions: 230000003 cycles: 238296466 heartbeat IPC: 0.798382 cumulative IPC: 0.961997 (Simulation time: 0 hr 23 min 1 sec) 
Heartbeat CPU 0 instructions: 240000004 cycles: 248922198 heartbeat IPC: 0.941112 cumulative IPC: 0.961105 (Simulation time: 0 hr 23 min 59 sec) 
Heartbeat CPU 0 instructions: 250000004 cycles: 260460216 heartbeat IPC: 0.8667 cumulative IPC: 0.956919 (Simulation time: 0 hr 25 min 1 sec) 
Heartbeat CPU 0 instructions: 260000000 cycles: 270517617 heartbeat IPC: 0.994292 cumulative IPC: 0.95831 (Simulation time: 0 hr 25 min 59 sec) 
Heartbeat CPU 0 instructions: 270000001 cycles: 280339415 heartbeat IPC: 1.01814 cumulative IPC: 0.960408 (Simulation time: 0 hr 26 min 53 sec) 
Heartbeat CPU 0 instructions: 280000001 cycles: 290460998 heartbeat IPC: 0.987988 cumulative IPC: 0.96137 (Simulation time: 0 hr 27 min 49 sec) 
Heartbeat CPU 0 instructions: 290000003 cycles: 300435356 heartbeat IPC: 1.00257 cumulative IPC: 0.962739 (Simulation time: 0 hr 28 min 44 sec) 
Heartbeat CPU 0 instructions: 300000000 cycles: 310658855 heartbeat IPC: 0.978138 cumulative IPC: 0.963246 (Simulation time: 0 hr 29 min 40 sec) 
Heartbeat CPU 0 instructions: 310000004 cycles: 320911168 heartbeat IPC: 0.97539 cumulative IPC: 0.963634 (Simulation time: 0 hr 30 min 37 sec) 
Heartbeat CPU 0 instructions: 320000001 cycles: 331345590 heartbeat IPC: 0.958366 cumulative IPC: 0.963468 (Simulation time: 0 hr 31 min 34 sec) 
Heartbeat CPU 0 instructions: 330000000 cycles: 341897537 heartbeat IPC: 0.947692 cumulative IPC: 0.962981 (Simulation time: 0 hr 32 min 31 sec) 
Heartbeat CPU 0 instructions: 340000002 cycles: 352350510 heartbeat IPC: 0.956666 cumulative IPC: 0.962793 (Simulation time: 0 hr 33 min 27 sec) 
Heartbeat CPU 0 instructions: 350000001 cycles: 362988852 heartbeat IPC: 0.939996 cumulative IPC: 0.962125 (Simulation time: 0 hr 34 min 24 sec) 
Heartbeat CPU 0 instructions: 360000002 cycles: 374113601 heartbeat IPC: 0.898897 cumulative IPC: 0.960243 (Simulation time: 0 hr 35 min 24 sec) 
Heartbeat CPU 0 instructions: 370000000 cycles: 385242133 heartbeat IPC: 0.898591 cumulative IPC: 0.958461 (Simulation time: 0 hr 36 min 22 sec) 
Heartbeat CPU 0 instructions: 380000002 cycles: 395916150 heartbeat IPC: 0.936855 cumulative IPC: 0.957878 (Simulation time: 0 hr 37 min 21 sec) 
Heartbeat CPU 0 instructions: 390000004 cycles: 406555415 heartbeat IPC: 0.939915 cumulative IPC: 0.957408 (Simulation time: 0 hr 38 min 18 sec) 
Heartbeat CPU 0 instructions: 400000003 cycles: 417450411 heartbeat IPC: 0.917852 cumulative IPC: 0.956375 (Simulation time: 0 hr 39 min 17 sec) 
Heartbeat CPU 0 instructions: 410000004 cycles: 429166833 heartbeat IPC: 0.853503 cumulative IPC: 0.953565 (Simulation time: 0 hr 40 min 18 sec) 
Heartbeat CPU 0 instructions: 420000000 cycles: 440289773 heartbeat IPC: 0.899043 cumulative IPC: 0.952187 (Simulation time: 0 hr 41 min 17 sec) 
Heartbeat CPU 0 instructions: 430000000 cycles: 451272935 heartbeat IPC: 0.910485 cumulative IPC: 0.951171 (Simulation time: 0 hr 42 min 14 sec) 
Heartbeat CPU 0 instructions: 440000003 cycles: 462316974 heartbeat IPC: 0.905466 cumulative IPC: 0.950079 (Simulation time: 0 hr 43 min 13 sec) 
Heartbeat CPU 0 instructions: 450000001 cycles: 473838304 heartbeat IPC: 0.867955 cumulative IPC: 0.948081 (Simulation time: 0 hr 44 min 13 sec) 
Heartbeat CPU 0 instructions: 460000003 cycles: 484948559 heartbeat IPC: 0.90007 cumulative IPC: 0.94698 (Simulation time: 0 hr 45 min 9 sec) 
Heartbeat CPU 0 instructions: 470000004 cycles: 496671129 heartbeat IPC: 0.853055 cumulative IPC: 0.944763 (Simulation time: 0 hr 46 min 6 sec) 
Heartbeat CPU 0 instructions: 480000000 cycles: 509145636 heartbeat IPC: 0.801635 cumulative IPC: 0.941254 (Simulation time: 0 hr 47 min 6 sec) 
Heartbeat CPU 0 instructions: 490000003 cycles: 523136112 heartbeat IPC: 0.714772 cumulative IPC: 0.935194 (Simulation time: 0 hr 48 min 10 sec) 
Heartbeat CPU 0 instructions: 500000003 cycles: 538009334 heartbeat IPC: 0.672349 cumulative IPC: 0.927925 (Simulation time: 0 hr 49 min 18 sec) 
Heartbeat CPU 0 instructions: 510000001 cycles: 550603263 heartbeat IPC: 0.794033 cumulative IPC: 0.924861 (Simulation time: 0 hr 50 min 20 sec) 
Heartbeat CPU 0 instructions: 520000004 cycles: 563762994 heartbeat IPC: 0.759894 cumulative IPC: 0.921008 (Simulation time: 0 hr 51 min 22 sec) 
Heartbeat CPU 0 instructions: 530000004 cycles: 576472599 heartbeat IPC: 0.786807 cumulative IPC: 0.918048 (Simulation time: 0 hr 52 min 25 sec) 
Heartbeat CPU 0 instructions: 540000002 cycles: 589179367 heartbeat IPC: 0.786982 cumulative IPC: 0.91522 (Simulation time: 0 hr 53 min 27 sec) 
Heartbeat CPU 0 instructions: 550000004 cycles: 602909143 heartbeat IPC: 0.728344 cumulative IPC: 0.910963 (Simulation time: 0 hr 54 min 33 sec) 
Heartbeat CPU 0 instructions: 560000001 cycles: 616204437 heartbeat IPC: 0.752146 cumulative IPC: 0.907535 (Simulation time: 0 hr 55 min 36 sec) 
Heartbeat CPU 0 instructions: 570000000 cycles: 629040422 heartbeat IPC: 0.77906 cumulative IPC: 0.904912 (Simulation time: 0 hr 56 min 37 sec) 
Heartbeat CPU 0 instructions: 580000000 cycles: 641430685 heartbeat IPC: 0.807085 cumulative IPC: 0.903022 (Simulation time: 0 hr 57 min 37 sec) 
Heartbeat CPU 0 instructions: 590000001 cycles: 654010149 heartbeat IPC: 0.794946 cumulative IPC: 0.900942 (Simulation time: 0 hr 58 min 37 sec) 
Heartbeat CPU 0 instructions: 600000004 cycles: 666242453 heartbeat IPC: 0.817508 cumulative IPC: 0.89941 (Simulation time: 0 hr 59 min 38 sec) 
Heartbeat CPU 0 instructions: 610000003 cycles: 678933007 heartbeat IPC: 0.787988 cumulative IPC: 0.897326 (Simulation time: 1 hr 0 min 41 sec) 
Heartbeat CPU 0 instructions: 620000003 cycles: 691033952 heartbeat IPC: 0.826382 cumulative IPC: 0.896083 (Simulation time: 1 hr 1 min 41 sec) 
Heartbeat CPU 0 instructions: 630000002 cycles: 704187580 heartbeat IPC: 0.760246 cumulative IPC: 0.893545 (Simulation time: 1 hr 2 min 43 sec) 
Heartbeat CPU 0 instructions: 640000003 cycles: 717062424 heartbeat IPC: 0.776709 cumulative IPC: 0.891447 (Simulation time: 1 hr 3 min 46 sec) 
Heartbeat CPU 0 instructions: 650000002 cycles: 728794251 heartbeat IPC: 0.852382 cumulative IPC: 0.890818 (Simulation time: 1 hr 4 min 48 sec) 
Heartbeat CPU 0 instructions: 660000001 cycles: 741023974 heartbeat IPC: 0.81768 cumulative IPC: 0.88961 (Simulation time: 1 hr 5 min 50 sec) 
Heartbeat CPU 0 instructions: 670000002 cycles: 753332996 heartbeat IPC: 0.812412 cumulative IPC: 0.888348 (Simulation time: 1 hr 6 min 52 sec) 
Heartbeat CPU 0 instructions: 680000004 cycles: 766465435 heartbeat IPC: 0.761473 cumulative IPC: 0.886174 (Simulation time: 1 hr 8 min 0 sec) 
Heartbeat CPU 0 instructions: 690000002 cycles: 779322095 heartbeat IPC: 0.777807 cumulative IPC: 0.884386 (Simulation time: 1 hr 9 min 7 sec) 
Heartbeat CPU 0 instructions: 700000003 cycles: 793235658 heartbeat IPC: 0.718723 cumulative IPC: 0.881479 (Simulation time: 1 hr 10 min 15 sec) 
Heartbeat CPU 0 instructions: 710000004 cycles: 805823016 heartbeat IPC: 0.794448 cumulative IPC: 0.880119 (Simulation time: 1 hr 11 min 20 sec) 
Heartbeat CPU 0 instructions: 720000000 cycles: 817920073 heartbeat IPC: 0.826647 cumulative IPC: 0.879328 (Simulation time: 1 hr 12 min 23 sec) 
Heartbeat CPU 0 instructions: 730000000 cycles: 830907247 heartbeat IPC: 0.76999 cumulative IPC: 0.877618 (Simulation time: 1 hr 13 min 29 sec) 
Heartbeat CPU 0 instructions: 740000002 cycles: 843647766 heartbeat IPC: 0.784898 cumulative IPC: 0.876218 (Simulation time: 1 hr 14 min 33 sec) 
Heartbeat CPU 0 instructions: 750000004 cycles: 857527994 heartbeat IPC: 0.720449 cumulative IPC: 0.873696 (Simulation time: 1 hr 15 min 40 sec) 
Heartbeat CPU 0 instructions: 760000004 cycles: 872227665 heartbeat IPC: 0.680287 cumulative IPC: 0.870435 (Simulation time: 1 hr 16 min 51 sec) 
Heartbeat CPU 0 instructions: 770000002 cycles: 886433788 heartbeat IPC: 0.703922 cumulative IPC: 0.867766 (Simulation time: 1 hr 17 min 59 sec) 
Heartbeat CPU 0 instructions: 780000000 cycles: 900169643 heartbeat IPC: 0.728022 cumulative IPC: 0.865633 (Simulation time: 1 hr 19 min 7 sec) 
Heartbeat CPU 0 instructions: 790000000 cycles: 913702679 heartbeat IPC: 0.738932 cumulative IPC: 0.863756 (Simulation time: 1 hr 20 min 13 sec) 
Heartbeat CPU 0 instructions: 800000001 cycles: 927899411 heartbeat IPC: 0.704388 cumulative IPC: 0.861317 (Simulation time: 1 hr 21 min 22 sec) 
Heartbeat CPU 0 instructions: 810000003 cycles: 941412895 heartbeat IPC: 0.740002 cumulative IPC: 0.859575 (Simulation time: 1 hr 22 min 28 sec) 
Heartbeat CPU 0 instructions: 820000001 cycles: 955214638 heartbeat IPC: 0.724546 cumulative IPC: 0.857623 (Simulation time: 1 hr 23 min 37 sec) 
Heartbeat CPU 0 instructions: 830000003 cycles: 969206657 heartbeat IPC: 0.714693 cumulative IPC: 0.855559 (Simulation time: 1 hr 24 min 47 sec) 
Heartbeat CPU 0 instructions: 840000001 cycles: 982295659 heartbeat IPC: 0.764 cumulative IPC: 0.854339 (Simulation time: 1 hr 25 min 54 sec) 
Heartbeat CPU 0 instructions: 850000000 cycles: 994573167 heartbeat IPC: 0.814497 cumulative IPC: 0.853847 (Simulation time: 1 hr 27 min 2 sec) 
Heartbeat CPU 0 instructions: 860000004 cycles: 1007356952 heartbeat IPC: 0.782241 cumulative IPC: 0.852938 (Simulation time: 1 hr 28 min 10 sec) 
Heartbeat CPU 0 instructions: 870000000 cycles: 1020733989 heartbeat IPC: 0.747549 cumulative IPC: 0.851557 (Simulation time: 1 hr 29 min 20 sec) 
Heartbeat CPU 0 instructions: 880000002 cycles: 1033582105 heartbeat IPC: 0.778324 cumulative IPC: 0.850646 (Simulation time: 1 hr 30 min 29 sec) 
Heartbeat CPU 0 instructions: 890000004 cycles: 1047658543 heartbeat IPC: 0.710407 cumulative IPC: 0.848761 (Simulation time: 1 hr 31 min 41 sec) 
Heartbeat CPU 0 instructions: 900000000 cycles: 1063144111 heartbeat IPC: 0.645762 cumulative IPC: 0.845804 (Simulation time: 1 hr 32 min 59 sec) 
Heartbeat CPU 0 instructions: 910000002 cycles: 1078160658 heartbeat IPC: 0.665932 cumulative IPC: 0.843298 (Simulation time: 1 hr 34 min 16 sec) 
Heartbeat CPU 0 instructions: 920000004 cycles: 1092351687 heartbeat IPC: 0.704671 cumulative IPC: 0.841497 (Simulation time: 1 hr 35 min 29 sec) 
Heartbeat CPU 0 instructions: 930000002 cycles: 1106203835 heartbeat IPC: 0.72191 cumulative IPC: 0.839999 (Simulation time: 1 hr 36 min 40 sec) 
Heartbeat CPU 0 instructions: 940000000 cycles: 1120542326 heartbeat IPC: 0.697423 cumulative IPC: 0.838174 (Simulation time: 1 hr 37 min 52 sec) 
Heartbeat CPU 0 instructions: 950000002 cycles: 1135179397 heartbeat IPC: 0.683197 cumulative IPC: 0.836175 (Simulation time: 1 hr 39 min 6 sec) 
Heartbeat CPU 0 instructions: 960000000 cycles: 1149749661 heartbeat IPC: 0.686329 cumulative IPC: 0.834276 (Simulation time: 1 hr 40 min 20 sec) 
Heartbeat CPU 0 instructions: 970000000 cycles: 1162743362 heartbeat IPC: 0.769604 cumulative IPC: 0.833553 (Simulation time: 1 hr 41 min 29 sec) 
Heartbeat CPU 0 instructions: 980000000 cycles: 1175949842 heartbeat IPC: 0.757204 cumulative IPC: 0.832696 (Simulation time: 1 hr 42 min 39 sec) 
Heartbeat CPU 0 instructions: 990000002 cycles: 1188826195 heartbeat IPC: 0.776618 cumulative IPC: 0.832088 (Simulation time: 1 hr 43 min 46 sec) 
Heartbeat CPU 0 instructions: 1000000000 cycles: 1202811656 heartbeat IPC: 0.715028 cumulative IPC: 0.830727 (Simulation time: 1 hr 44 min 58 sec) 
Finished CPU 0 instructions: 1000000003 cycles: 1204038690 cumulative IPC: 0.830538 (Simulation time: 1 hr 45 min 5 sec) 

ChampSim completed all CPUs

Region of Interest Statistics

CPU 0 cumulative IPC: 0.830538 instructions: 1000000003 cycles: 1204038690
cpu0_DTLB TOTAL     ACCESS:  234188562  HIT:  231148176  MISS:    3040386
cpu0_DTLB LOAD      ACCESS:  180382624  HIT:  177463743  MISS:    2918881
cpu0_DTLB RFO       ACCESS:   53805938  HIT:   53684433  MISS:     121505
cpu0_DTLB PREFETCH  ACCESS:          0  HIT:          0  MISS:          0
cpu0_DTLB WRITEBACK ACCESS:          0  HIT:          0  MISS:          0
cpu0_DTLB TRANSLATION ACCESS:          0  HIT:          0  MISS:          0
cpu0_DTLB PREFETCH  REQUESTED:          0  ISSUED:          0  USEFUL:          0  USELESS:          0
cpu0_DTLB AVERAGE MISS LATENCY: 10.2536 cycles
cpu0_ITLB TOTAL     ACCESS:  105486216  HIT:  105486216  MISS:          0
cpu0_ITLB LOAD      ACCESS:  105486216  HIT:  105486216  MISS:          0
cpu0_ITLB RFO       ACCESS:          0  HIT:          0  MISS:          0
cpu0_ITLB PREFETCH  ACCESS:          0  HIT:          0  MISS:          0
cpu0_ITLB WRITEBACK ACCESS:          0  HIT:          0  MISS:          0
cpu0_ITLB TRANSLATION ACCESS:          0  HIT:          0  MISS:          0
cpu0_ITLB PREFETCH  REQUESTED:          0  ISSUED:          0  USEFUL:          0  USELESS:          0
cpu0_ITLB AVERAGE MISS LATENCY: -nan cycles
cpu0_STLB TOTAL     ACCESS:    3040386  HIT:    2709834  MISS:     330552
cpu0_STLB LOAD      ACCESS:    2918881  HIT:    2602120  MISS:     316761
cpu0_STLB RFO       ACCESS:     121505  HIT:     107714  MISS:      13791
cpu0_STLB PREFETCH  ACCESS:          0  HIT:          0  MISS:          0
cpu0_STLB WRITEBACK ACCESS:          0  HIT:          0  MISS:          0
cpu0_STLB TRANSLATION ACCESS:          0  HIT:          0  MISS:          0
cpu0_STLB PREFETCH  REQUESTED:          0  ISSUED:          0  USEFUL:          0  USELESS:          0
cpu0_STLB AVERAGE MISS LATENCY: 11.4651 cycles
cpu0_L1D TOTAL     ACCESS:  458045634  HIT:  448828874  MISS:    9216760
cpu0_L1D LOAD      ACCESS:  164138142  HIT:  159552025  MISS:    4586117
cpu0_L1D RFO       ACCESS:  129908448  HIT:  129156049  MISS:     752399
cpu0_L1D PREFETCH  ACCESS:  163669539  HIT:  159809133  MISS:    3860406
cpu0_L1D WRITEBACK ACCESS:          0  HIT:          0  MISS:          0
cpu0_L1D TRANSLATION ACCESS:     329505  HIT:     311667  MISS:      17838
cpu0_L1D PREFETCH  REQUESTED:  166595351  ISSUED:  166083833  USEFUL:    3449386  USELESS:     447644
cpu0_L1D AVERAGE MISS LATENCY: 104.72 cycles
cpu0_L2C TOTAL     ACCESS:   13203402  HIT:    9356869  MISS:    3846533
cpu0_L2C LOAD      ACCESS:    4548831  HIT:    2677952  MISS:    1870879
cpu0_L2C RFO       ACCESS:     752390  HIT:     301598  MISS:     450792
cpu0_L2C PREFETCH  ACCESS:    5896573  HIT:    4373867  MISS:    1522706
cpu0_L2C WRITEBACK ACCESS:    1987770  HIT:    1986687  MISS:       1083
cpu0_L2C TRANSLATION ACCESS:      17838  HIT:      16765  MISS:       1073
cpu0_L2C PREFETCH  REQUESTED:    2000242  ISSUED:    2000242  USEFUL:      56854  USELESS:       2285
cpu0_L2C AVERAGE MISS LATENCY: 226.388 cycles
LLC TOTAL     ACCESS:    5321795  HIT:    2205566  MISS:    3116229
LLC LOAD      ACCESS:    1870813  HIT:     714514  MISS:    1156299
LLC RFO       ACCESS:     450790  HIT:      50876  MISS:     399914
LLC PREFETCH  ACCESS:    1522700  HIT:     671204  MISS:     851496
LLC WRITEBACK ACCESS:    1476419  HIT:     768412  MISS:     708007
LLC TRANSLATION ACCESS:       1073  HIT:        560  MISS:        513
LLC PREFETCH  REQUESTED:          0  ISSUED:          0  USEFUL:          0  USELESS:          0
LLC AVERAGE MISS LATENCY: 246.125 cycles
OPTgen accesses: 36809
OPTgen hits: 26429
OPTgen hit rate: 71.8004



DRAM Statistics
 CHANNEL 0
 RQ ROW_BUFFER_HIT:     160429  ROW_BUFFER_MISS:    2246892
 DBUS AVG_CONGESTED_CYCLE:    3.73125
 WQ ROW_BUFFER_HIT:     205007  ROW_BUFFER_MISS:     992505  FULL:          0


CPU 0 Branch Prediction Accuracy: 86.4943% MPKI: 17.6184 Average ROB Occupancy at Mispredict: 45.6518
Branch type MPKI
BRANCH_DIRECT_JUMP: 0
BRANCH_INDIRECT: 0
BRANCH_CONDITIONAL: 17.6184
BRANCH_DIRECT_CALL: 0
BRANCH_INDIRECT_CALL: 0
BRANCH_RETURN: 0

