
*** ChampSim Multicore Out-of-Order Simulator ***

Warmup Instructions: 1000000
Simulation Instructions: 1000000000
Number of CPUs: 1
Off-chip DRAM Size: 4 GiB Channels: 1 Width: 64-bit Data Rate: 3200 MT/s

VirtualMemory physical capacity: 8588881920 num_ppages: 2096895
VirtualMemory page size: 4096 log2_page_size: 12

CPU 0 runs tracer/pin/traces/spec2k6/462.libquantum-1343B.champsimtrace.xz
Basic BTB sets: 1024 ways: 8 indirect buffer size: 4096 RAS size: 64
cpu0_L1D next line prefetcher
cpu0_L2C IP-based stride prefetcher
Initialize Hawkeye state
WARNING: The extended signature CACHE::prefetch_line(ip, base_addr, pf_addr, fill_this_level, prefetch_metadata) is deprecated.
WARNING: Use CACHE::prefetch_line(pf_addr, fill_this_level, prefetch_metadata) instead.

Warmup complete CPU 0 instructions: 1000004 cycles: 269650 (Simulation time: 0 hr 0 min 4 sec) 

Heartbeat CPU 0 instructions: 10000001 cycles: 24810305 heartbeat IPC: 0.403058 cumulative IPC: 0.366738 (Simulation time: 0 hr 1 min 49 sec) 
Heartbeat CPU 0 instructions: 20000002 cycles: 52235400 heartbeat IPC: 0.36463 cumulative IPC: 0.365625 (Simulation time: 0 hr 3 min 46 sec) 
Heartbeat CPU 0 instructions: 30000001 cycles: 84920797 heartbeat IPC: 0.305947 cumulative IPC: 0.342582 (Simulation time: 0 hr 5 min 53 sec) 
Heartbeat CPU 0 instructions: 40000001 cycles: 128113512 heartbeat IPC: 0.231521 cumulative IPC: 0.30506 (Simulation time: 0 hr 8 min 20 sec) 
Heartbeat CPU 0 instructions: 50000001 cycles: 173565232 heartbeat IPC: 0.220014 cumulative IPC: 0.282754 (Simulation time: 0 hr 11 min 44 sec) 
Heartbeat CPU 0 instructions: 60000004 cycles: 222578986 heartbeat IPC: 0.204024 cumulative IPC: 0.265396 (Simulation time: 0 hr 16 min 1 sec) 
Heartbeat CPU 0 instructions: 70000004 cycles: 253385231 heartbeat IPC: 0.32461 cumulative IPC: 0.272603 (Simulation time: 0 hr 18 min 15 sec) 
Heartbeat CPU 0 instructions: 80000000 cycles: 284318302 heartbeat IPC: 0.323278 cumulative IPC: 0.278121 (Simulation time: 0 hr 20 min 33 sec) 
Heartbeat CPU 0 instructions: 90000003 cycles: 309406263 heartbeat IPC: 0.398598 cumulative IPC: 0.287899 (Simulation time: 0 hr 22 min 40 sec) 
Heartbeat CPU 0 instructions: 100000003 cycles: 335868151 heartbeat IPC: 0.377902 cumulative IPC: 0.294995 (Simulation time: 0 hr 24 min 53 sec) 
Heartbeat CPU 0 instructions: 110000004 cycles: 361952369 heartbeat IPC: 0.383374 cumulative IPC: 0.301369 (Simulation time: 0 hr 27 min 6 sec) 
Heartbeat CPU 0 instructions: 120000003 cycles: 392935162 heartbeat IPC: 0.32276 cumulative IPC: 0.303057 (Simulation time: 0 hr 29 min 34 sec) 
Heartbeat CPU 0 instructions: 130000003 cycles: 420945702 heartbeat IPC: 0.357008 cumulative IPC: 0.306649 (Simulation time: 0 hr 31 min 52 sec) 
Heartbeat CPU 0 instructions: 140000004 cycles: 445979130 heartbeat IPC: 0.399466 cumulative IPC: 0.311862 (Simulation time: 0 hr 34 min 11 sec) 
Heartbeat CPU 0 instructions: 150000001 cycles: 471148755 heartbeat IPC: 0.397304 cumulative IPC: 0.316429 (Simulation time: 0 hr 36 min 27 sec) 
Heartbeat CPU 0 instructions: 160000001 cycles: 498717509 heartbeat IPC: 0.362729 cumulative IPC: 0.31899 (Simulation time: 0 hr 38 min 42 sec) 
Heartbeat CPU 0 instructions: 170000003 cycles: 529699330 heartbeat IPC: 0.32277 cumulative IPC: 0.319211 (Simulation time: 0 hr 41 min 4 sec) 
Heartbeat CPU 0 instructions: 180000004 cycles: 556383539 heartbeat IPC: 0.374754 cumulative IPC: 0.321877 (Simulation time: 0 hr 43 min 21 sec) 
Heartbeat CPU 0 instructions: 190000001 cycles: 583281122 heartbeat IPC: 0.371781 cumulative IPC: 0.324179 (Simulation time: 0 hr 45 min 47 sec) 
Heartbeat CPU 0 instructions: 200000003 cycles: 609773238 heartbeat IPC: 0.377471 cumulative IPC: 0.326495 (Simulation time: 0 hr 48 min 0 sec) 
Heartbeat CPU 0 instructions: 210000001 cycles: 650873623 heartbeat IPC: 0.243307 cumulative IPC: 0.32124 (Simulation time: 0 hr 50 min 42 sec) 
Heartbeat CPU 0 instructions: 220000003 cycles: 690985719 heartbeat IPC: 0.249301 cumulative IPC: 0.317062 (Simulation time: 0 hr 53 min 29 sec) 
Heartbeat CPU 0 instructions: 230000002 cycles: 744403770 heartbeat IPC: 0.187203 cumulative IPC: 0.30774 (Simulation time: 0 hr 58 min 22 sec) 
Heartbeat CPU 0 instructions: 240000000 cycles: 778720433 heartbeat IPC: 0.291404 cumulative IPC: 0.30702 (Simulation time: 1 hr 1 min 15 sec) 
Heartbeat CPU 0 instructions: 250000000 cycles: 808761950 heartbeat IPC: 0.332873 cumulative IPC: 0.307981 (Simulation time: 1 hr 3 min 33 sec) 
Heartbeat CPU 0 instructions: 260000003 cycles: 840652058 heartbeat IPC: 0.313577 cumulative IPC: 0.308193 (Simulation time: 1 hr 5 min 50 sec) 
Heartbeat CPU 0 instructions: 270000000 cycles: 882940270 heartbeat IPC: 0.236472 cumulative IPC: 0.304757 (Simulation time: 1 hr 8 min 25 sec) 
Heartbeat CPU 0 instructions: 280000000 cycles: 926828348 heartbeat IPC: 0.227852 cumulative IPC: 0.301114 (Simulation time: 1 hr 11 min 47 sec) 
Heartbeat CPU 0 instructions: 290000001 cycles: 979188342 heartbeat IPC: 0.190986 cumulative IPC: 0.295224 (Simulation time: 1 hr 16 min 18 sec) 
Heartbeat CPU 0 instructions: 300000000 cycles: 1020102465 heartbeat IPC: 0.244414 cumulative IPC: 0.293185 (Simulation time: 1 hr 18 min 44 sec) 
Heartbeat CPU 0 instructions: 310000004 cycles: 1059895108 heartbeat IPC: 0.251303 cumulative IPC: 0.291612 (Simulation time: 1 hr 21 min 7 sec) 
Heartbeat CPU 0 instructions: 320000002 cycles: 1112900730 heartbeat IPC: 0.188659 cumulative IPC: 0.286708 (Simulation time: 1 hr 25 min 42 sec) 
Heartbeat CPU 0 instructions: 330000002 cycles: 1155118002 heartbeat IPC: 0.23687 cumulative IPC: 0.284886 (Simulation time: 1 hr 28 min 52 sec) 
Heartbeat CPU 0 instructions: 340000003 cycles: 1193497885 heartbeat IPC: 0.260553 cumulative IPC: 0.284103 (Simulation time: 1 hr 31 min 24 sec) 
Heartbeat CPU 0 instructions: 350000001 cycles: 1224572654 heartbeat IPC: 0.321804 cumulative IPC: 0.28506 (Simulation time: 1 hr 33 min 39 sec) 
Heartbeat CPU 0 instructions: 360000003 cycles: 1255564150 heartbeat IPC: 0.322669 cumulative IPC: 0.285989 (Simulation time: 1 hr 36 min 4 sec) 
Heartbeat CPU 0 instructions: 370000003 cycles: 1290177037 heartbeat IPC: 0.28891 cumulative IPC: 0.286067 (Simulation time: 1 hr 38 min 58 sec) 
Heartbeat CPU 0 instructions: 380000002 cycles: 1343569800 heartbeat IPC: 0.187291 cumulative IPC: 0.282141 (Simulation time: 1 hr 43 min 44 sec) 
Heartbeat CPU 0 instructions: 390000000 cycles: 1384779912 heartbeat IPC: 0.242659 cumulative IPC: 0.280966 (Simulation time: 1 hr 46 min 29 sec) 
Heartbeat CPU 0 instructions: 400000002 cycles: 1426924415 heartbeat IPC: 0.237279 cumulative IPC: 0.279675 (Simulation time: 1 hr 49 min 4 sec) 
Heartbeat CPU 0 instructions: 410000001 cycles: 1454523416 heartbeat IPC: 0.362332 cumulative IPC: 0.281244 (Simulation time: 1 hr 51 min 17 sec) 
Heartbeat CPU 0 instructions: 420000003 cycles: 1482998642 heartbeat IPC: 0.351183 cumulative IPC: 0.282587 (Simulation time: 1 hr 53 min 40 sec) 
Heartbeat CPU 0 instructions: 430000000 cycles: 1509911468 heartbeat IPC: 0.37157 cumulative IPC: 0.284173 (Simulation time: 1 hr 55 min 54 sec) 
Heartbeat CPU 0 instructions: 440000001 cycles: 1539972236 heartbeat IPC: 0.33266 cumulative IPC: 0.28512 (Simulation time: 1 hr 58 min 14 sec) 
Heartbeat CPU 0 instructions: 450000002 cycles: 1567106530 heartbeat IPC: 0.368537 cumulative IPC: 0.286565 (Simulation time: 2 hr 0 min 30 sec) 
Heartbeat CPU 0 instructions: 460000000 cycles: 1594041973 heartbeat IPC: 0.371258 cumulative IPC: 0.287996 (Simulation time: 2 hr 2 min 47 sec) 
Heartbeat CPU 0 instructions: 470000003 cycles: 1620915298 heartbeat IPC: 0.372116 cumulative IPC: 0.289391 (Simulation time: 2 hr 5 min 9 sec) 
Heartbeat CPU 0 instructions: 480000003 cycles: 1648377039 heartbeat IPC: 0.364143 cumulative IPC: 0.290636 (Simulation time: 2 hr 7 min 22 sec) 
Heartbeat CPU 0 instructions: 490000003 cycles: 1678362999 heartbeat IPC: 0.333489 cumulative IPC: 0.291402 (Simulation time: 2 hr 9 min 41 sec) 
Heartbeat CPU 0 instructions: 500000004 cycles: 1706818840 heartbeat IPC: 0.351422 cumulative IPC: 0.292403 (Simulation time: 2 hr 11 min 55 sec) 
Heartbeat CPU 0 instructions: 510000002 cycles: 1738739137 heartbeat IPC: 0.31328 cumulative IPC: 0.292786 (Simulation time: 2 hr 14 min 13 sec) 
Heartbeat CPU 0 instructions: 520000001 cycles: 1767553953 heartbeat IPC: 0.347044 cumulative IPC: 0.293671 (Simulation time: 2 hr 16 min 23 sec) 
Heartbeat CPU 0 instructions: 530000002 cycles: 1797474739 heartbeat IPC: 0.334216 cumulative IPC: 0.294346 (Simulation time: 2 hr 18 min 45 sec) 
Heartbeat CPU 0 instructions: 540000004 cycles: 1827355015 heartbeat IPC: 0.334669 cumulative IPC: 0.295005 (Simulation time: 2 hr 21 min 7 sec) 
Heartbeat CPU 0 instructions: 550000000 cycles: 1875320058 heartbeat IPC: 0.208485 cumulative IPC: 0.292792 (Simulation time: 2 hr 25 min 46 sec) 
Heartbeat CPU 0 instructions: 560000003 cycles: 1922612110 heartbeat IPC: 0.211452 cumulative IPC: 0.290791 (Simulation time: 2 hr 29 min 39 sec) 
Heartbeat CPU 0 instructions: 570000002 cycles: 1968599856 heartbeat IPC: 0.217449 cumulative IPC: 0.289078 (Simulation time: 2 hr 32 min 24 sec) 
Heartbeat CPU 0 instructions: 580000000 cycles: 2004058390 heartbeat IPC: 0.282019 cumulative IPC: 0.288953 (Simulation time: 2 hr 34 min 52 sec) 
Heartbeat CPU 0 instructions: 590000001 cycles: 2033203830 heartbeat IPC: 0.343107 cumulative IPC: 0.289729 (Simulation time: 2 hr 37 min 14 sec) 
Heartbeat CPU 0 instructions: 600000001 cycles: 2060076522 heartbeat IPC: 0.372125 cumulative IPC: 0.290804 (Simulation time: 2 hr 39 min 29 sec) 
Heartbeat CPU 0 instructions: 610000000 cycles: 2090924715 heartbeat IPC: 0.324168 cumulative IPC: 0.291296 (Simulation time: 2 hr 41 min 55 sec) 
Heartbeat CPU 0 instructions: 620000002 cycles: 2121879776 heartbeat IPC: 0.323049 cumulative IPC: 0.29176 (Simulation time: 2 hr 44 min 16 sec) 
Heartbeat CPU 0 instructions: 630000004 cycles: 2150070080 heartbeat IPC: 0.354732 cumulative IPC: 0.292585 (Simulation time: 2 hr 46 min 29 sec) 
Heartbeat CPU 0 instructions: 640000000 cycles: 2180846874 heartbeat IPC: 0.32492 cumulative IPC: 0.293042 (Simulation time: 2 hr 48 min 55 sec) 
Heartbeat CPU 0 instructions: 650000002 cycles: 2209027393 heartbeat IPC: 0.354855 cumulative IPC: 0.29383 (Simulation time: 2 hr 51 min 10 sec) 
Heartbeat CPU 0 instructions: 660000001 cycles: 2239999314 heartbeat IPC: 0.322873 cumulative IPC: 0.294232 (Simulation time: 2 hr 53 min 38 sec) 
Heartbeat CPU 0 instructions: 670000004 cycles: 2268453825 heartbeat IPC: 0.351438 cumulative IPC: 0.29495 (Simulation time: 2 hr 55 min 55 sec) 
Heartbeat CPU 0 instructions: 680000001 cycles: 2299141832 heartbeat IPC: 0.32586 cumulative IPC: 0.295362 (Simulation time: 2 hr 58 min 14 sec) 
Heartbeat CPU 0 instructions: 690000004 cycles: 2329869600 heartbeat IPC: 0.325439 cumulative IPC: 0.295759 (Simulation time: 3 hr 0 min 40 sec) 
Heartbeat CPU 0 instructions: 700000001 cycles: 2358232427 heartbeat IPC: 0.352574 cumulative IPC: 0.296442 (Simulation time: 3 hr 2 min 49 sec) 
Heartbeat CPU 0 instructions: 710000001 cycles: 2389189873 heartbeat IPC: 0.323024 cumulative IPC: 0.296787 (Simulation time: 3 hr 5 min 11 sec) 
Heartbeat CPU 0 instructions: 720000003 cycles: 2427759768 heartbeat IPC: 0.25927 cumulative IPC: 0.296191 (Simulation time: 3 hr 8 min 30 sec) 
Heartbeat CPU 0 instructions: 730000000 cycles: 2478970711 heartbeat IPC: 0.195271 cumulative IPC: 0.294106 (Simulation time: 3 hr 13 min 15 sec) 
Heartbeat CPU 0 instructions: 740000003 cycles: 2524138208 heartbeat IPC: 0.221398 cumulative IPC: 0.292804 (Simulation time: 3 hr 15 min 54 sec) 
Heartbeat CPU 0 instructions: 750000004 cycles: 2567142569 heartbeat IPC: 0.232535 cumulative IPC: 0.291795 (Simulation time: 3 hr 18 min 24 sec) 
Heartbeat CPU 0 instructions: 760000004 cycles: 2593835427 heartbeat IPC: 0.374632 cumulative IPC: 0.292647 (Simulation time: 3 hr 20 min 36 sec) 
Heartbeat CPU 0 instructions: 770000004 cycles: 2620786262 heartbeat IPC: 0.371046 cumulative IPC: 0.293454 (Simulation time: 3 hr 22 min 50 sec) 
Heartbeat CPU 0 instructions: 780000002 cycles: 2655874866 heartbeat IPC: 0.284993 cumulative IPC: 0.293342 (Simulation time: 3 hr 25 min 6 sec) 
Heartbeat CPU 0 instructions: 790000003 cycles: 2698140595 heartbeat IPC: 0.236598 cumulative IPC: 0.292453 (Simulation time: 3 hr 27 min 23 sec) 
Heartbeat CPU 0 instructions: 800000000 cycles: 2730074457 heartbeat IPC: 0.313147 cumulative IPC: 0.292695 (Simulation time: 3 hr 29 min 25 sec) 
Heartbeat CPU 0 instructions: 810000003 cycles: 2762686413 heartbeat IPC: 0.306636 cumulative IPC: 0.292859 (Simulation time: 3 hr 31 min 25 sec) 
Heartbeat CPU 0 instructions: 820000004 cycles: 2797743037 heartbeat IPC: 0.285253 cumulative IPC: 0.292764 (Simulation time: 3 hr 33 min 28 sec) 
Heartbeat CPU 0 instructions: 830000003 cycles: 2843740009 heartbeat IPC: 0.217406 cumulative IPC: 0.291545 (Simulation time: 3 hr 35 min 55 sec) 
Heartbeat CPU 0 instructions: 840000004 cycles: 2877594275 heartbeat IPC: 0.295384 cumulative IPC: 0.29159 (Simulation time: 3 hr 37 min 55 sec) 
Heartbeat CPU 0 instructions: 850000000 cycles: 2903816034 heartbeat IPC: 0.381363 cumulative IPC: 0.292401 (Simulation time: 3 hr 39 min 57 sec) 
Heartbeat CPU 0 instructions: 860000000 cycles: 2928455248 heartbeat IPC: 0.405857 cumulative IPC: 0.293356 (Simulation time: 3 hr 41 min 43 sec) 
Heartbeat CPU 0 instructions: 870000000 cycles: 2958330935 heartbeat IPC: 0.33472 cumulative IPC: 0.293774 (Simulation time: 3 hr 43 min 39 sec) 
Heartbeat CPU 0 instructions: 880000002 cycles: 2988237266 heartbeat IPC: 0.334377 cumulative IPC: 0.29418 (Simulation time: 3 hr 45 min 35 sec) 
Heartbeat CPU 0 instructions: 890000002 cycles: 3015577359 heartbeat IPC: 0.365763 cumulative IPC: 0.294829 (Simulation time: 3 hr 47 min 24 sec) 
Heartbeat CPU 0 instructions: 900000001 cycles: 3045344577 heartbeat IPC: 0.33594 cumulative IPC: 0.295231 (Simulation time: 3 hr 49 min 11 sec) 
Heartbeat CPU 0 instructions: 910000004 cycles: 3072631612 heartbeat IPC: 0.366475 cumulative IPC: 0.295864 (Simulation time: 3 hr 50 min 57 sec) 
Heartbeat CPU 0 instructions: 920000001 cycles: 3102662766 heartbeat IPC: 0.332987 cumulative IPC: 0.296223 (Simulation time: 3 hr 52 min 49 sec) 
Heartbeat CPU 0 instructions: 930000002 cycles: 3130404712 heartbeat IPC: 0.360465 cumulative IPC: 0.296792 (Simulation time: 3 hr 54 min 35 sec) 
Heartbeat CPU 0 instructions: 940000004 cycles: 3161068524 heartbeat IPC: 0.326117 cumulative IPC: 0.297077 (Simulation time: 3 hr 56 min 27 sec) 
Heartbeat CPU 0 instructions: 950000000 cycles: 3191803816 heartbeat IPC: 0.325359 cumulative IPC: 0.297349 (Simulation time: 3 hr 58 min 16 sec) 
Heartbeat CPU 0 instructions: 960000000 cycles: 3219373124 heartbeat IPC: 0.362722 cumulative IPC: 0.297909 (Simulation time: 3 hr 59 min 59 sec) 
Heartbeat CPU 0 instructions: 970000000 cycles: 3249336661 heartbeat IPC: 0.333739 cumulative IPC: 0.298239 (Simulation time: 4 hr 1 min 54 sec) 
Heartbeat CPU 0 instructions: 980000004 cycles: 3284090084 heartbeat IPC: 0.287742 cumulative IPC: 0.298128 (Simulation time: 4 hr 3 min 48 sec) 
Heartbeat CPU 0 instructions: 990000000 cycles: 3329470523 heartbeat IPC: 0.220359 cumulative IPC: 0.297068 (Simulation time: 4 hr 5 min 57 sec) 
Heartbeat CPU 0 instructions: 1000000002 cycles: 3362017781 heartbeat IPC: 0.307246 cumulative IPC: 0.297167 (Simulation time: 4 hr 7 min 49 sec) 
Finished CPU 0 instructions: 1000000004 cycles: 3364363042 cumulative IPC: 0.297233 (Simulation time: 4 hr 8 min 0 sec) 

ChampSim completed all CPUs

Region of Interest Statistics

CPU 0 cumulative IPC: 0.297233 instructions: 1000000004 cycles: 3364363042
cpu0_DTLB TOTAL     ACCESS:  166910355  HIT:  166522897  MISS:     387458
cpu0_DTLB LOAD      ACCESS:  153370681  HIT:  153039386  MISS:     331295
cpu0_DTLB RFO       ACCESS:   13539674  HIT:   13483511  MISS:      56163
cpu0_DTLB PREFETCH  ACCESS:          0  HIT:          0  MISS:          0
cpu0_DTLB WRITEBACK ACCESS:          0  HIT:          0  MISS:          0
cpu0_DTLB TRANSLATION ACCESS:          0  HIT:          0  MISS:          0
cpu0_DTLB PREFETCH  REQUESTED:          0  ISSUED:          0  USEFUL:          0  USELESS:          0
cpu0_DTLB AVERAGE MISS LATENCY: 20.2546 cycles
cpu0_ITLB TOTAL     ACCESS:   56040375  HIT:   56040371  MISS:          4
cpu0_ITLB LOAD      ACCESS:   56040375  HIT:   56040371  MISS:          4
cpu0_ITLB RFO       ACCESS:          0  HIT:          0  MISS:          0
cpu0_ITLB PREFETCH  ACCESS:          0  HIT:          0  MISS:          0
cpu0_ITLB WRITEBACK ACCESS:          0  HIT:          0  MISS:          0
cpu0_ITLB TRANSLATION ACCESS:          0  HIT:          0  MISS:          0
cpu0_ITLB PREFETCH  REQUESTED:          0  ISSUED:          0  USEFUL:          0  USELESS:          0
cpu0_ITLB AVERAGE MISS LATENCY: 302 cycles
cpu0_L1I TOTAL     ACCESS:        114  HIT:         64  MISS:         50
cpu0_L1I LOAD      ACCESS:        114  HIT:         64  MISS:         50
cpu0_L1I RFO       ACCESS:          0  HIT:          0  MISS:          0
cpu0_L1I PREFETCH  ACCESS:          0  HIT:          0  MISS:          0
cpu0_L1I WRITEBACK ACCESS:          0  HIT:          0  MISS:          0
cpu0_L1I TRANSLATION ACCESS:          0  HIT:          0  MISS:          0
cpu0_L1I PREFETCH  REQUESTED:          0  ISSUED:          0  USEFUL:          0  USELESS:          0
cpu0_L1I AVERAGE MISS LATENCY: 445.66 cycles
cpu0_STLB TOTAL     ACCESS:     387462  HIT:          0  MISS:     387462
cpu0_STLB LOAD      ACCESS:     331299  HIT:          0  MISS:     331299
cpu0_STLB RFO       ACCESS:      56163  HIT:          0  MISS:      56163
cpu0_STLB PREFETCH  ACCESS:          0  HIT:          0  MISS:          0
cpu0_STLB WRITEBACK ACCESS:          0  HIT:          0  MISS:          0
cpu0_STLB TRANSLATION ACCESS:          0  HIT:          0  MISS:          0
cpu0_STLB PREFETCH  REQUESTED:          0  ISSUED:          0  USEFUL:          0  USELESS:          0
cpu0_STLB AVERAGE MISS LATENCY: 11.2575 cycles
cpu0_L1D TOTAL     ACCESS:  189331233  HIT:  164152007  MISS:   25179226
cpu0_L1D LOAD      ACCESS:   98255432  HIT:   77307564  MISS:   20947868
cpu0_L1D RFO       ACCESS:   21701763  HIT:   21701582  MISS:        181
cpu0_L1D PREFETCH  ACCESS:   68986576  HIT:   64755589  MISS:    4230987
cpu0_L1D WRITEBACK ACCESS:          0  HIT:          0  MISS:          0
cpu0_L1D TRANSLATION ACCESS:     387462  HIT:     387272  MISS:        190
cpu0_L1D PREFETCH  REQUESTED:  120429447  ISSUED:  119754147  USEFUL:   23439344  USELESS:     345746
cpu0_L1D AVERAGE MISS LATENCY: 93.6271 cycles
cpu0_L2C TOTAL     ACCESS:   83330926  HIT:   56596718  MISS:   26734208
cpu0_L2C LOAD      ACCESS:    1393812  HIT:          7  MISS:    1393805
cpu0_L2C RFO       ACCESS:        181  HIT:          0  MISS:        181
cpu0_L2C PREFETCH  ACCESS:   73267923  HIT:   47927989  MISS:   25339934
cpu0_L2C WRITEBACK ACCESS:    8668820  HIT:    8668722  MISS:         98
cpu0_L2C TRANSLATION ACCESS:        190  HIT:          0  MISS:        190
cpu0_L2C PREFETCH  REQUESTED:   63555528  ISSUED:   51986268  USEFUL:    1146074  USELESS:     408960
cpu0_L2C AVERAGE MISS LATENCY: 446.444 cycles
LLC TOTAL     ACCESS:   35406315  HIT:    2291106  MISS:   33115209
LLC LOAD      ACCESS:    1393805  HIT:      94333  MISS:    1299472
LLC RFO       ACCESS:        181  HIT:        176  MISS:          5
LLC PREFETCH  ACCESS:   25342809  HIT:    1335640  MISS:   24007169
LLC WRITEBACK ACCESS:    8669330  HIT:     860951  MISS:    7808379
LLC TRANSLATION ACCESS:        190  HIT:          6  MISS:        184
LLC PREFETCH  REQUESTED:          0  ISSUED:          0  USEFUL:          0  USELESS:          0
LLC AVERAGE MISS LATENCY: 338.988 cycles
OPTgen accesses: 25442
OPTgen hits: 251
OPTgen hit rate: 0.986558



DRAM Statistics
 CHANNEL 0
 RQ ROW_BUFFER_HIT:    4937724  ROW_BUFFER_MISS:   20369106
 DBUS AVG_CONGESTED_CYCLE:    3.93882
 WQ ROW_BUFFER_HIT:     671658  ROW_BUFFER_MISS:    7520902  FULL:     103649


CPU 0 Branch Prediction Accuracy: 96.9565% MPKI: 5.58931 Average ROB Occupancy at Mispredict: 45.8031
Branch type MPKI
BRANCH_DIRECT_JUMP: 1e-05
BRANCH_INDIRECT: 1e-05
BRANCH_CONDITIONAL: 5.5892
BRANCH_DIRECT_CALL: 4.7e-05
BRANCH_INDIRECT_CALL: 0
BRANCH_RETURN: 4.7e-05

