
*** ChampSim Multicore Out-of-Order Simulator ***

Warmup Instructions: 200000000
Simulation Instructions: 1000000000
Number of CPUs: 1
Off-chip DRAM Size: 4 GiB Channels: 1 Width: 64-bit Data Rate: 3200 MT/s

VirtualMemory physical capacity: 8588881920 num_ppages: 2096895
VirtualMemory page size: 4096 log2_page_size: 12

CPU 0 runs tracer/pin/traces/xs-100hashxl-2.champsim.xz
Basic BTB sets: 1024 ways: 8 indirect buffer size: 4096 RAS size: 64
cpu0_L1D next line prefetcher
cpu0_L2C IP-based stride prefetcher
Initialize Hawkeye state
WARNING: The extended signature CACHE::prefetch_line(ip, base_addr, pf_addr, fill_this_level, prefetch_metadata) is deprecated.
WARNING: Use CACHE::prefetch_line(pf_addr, fill_this_level, prefetch_metadata) instead.
Heartbeat CPU 0 instructions: 10000003 cycles: 2500073 heartbeat IPC: 3.99988 cumulative IPC: 3.99988 (Simulation time: 0 hr 0 min 27 sec) 
Heartbeat CPU 0 instructions: 20000003 cycles: 5000073 heartbeat IPC: 4 cumulative IPC: 3.99994 (Simulation time: 0 hr 0 min 56 sec) 
Heartbeat CPU 0 instructions: 30000003 cycles: 7500073 heartbeat IPC: 4 cumulative IPC: 3.99996 (Simulation time: 0 hr 1 min 24 sec) 
Heartbeat CPU 0 instructions: 40000003 cycles: 10000073 heartbeat IPC: 4 cumulative IPC: 3.99997 (Simulation time: 0 hr 1 min 55 sec) 
Heartbeat CPU 0 instructions: 50000003 cycles: 12500073 heartbeat IPC: 4 cumulative IPC: 3.99998 (Simulation time: 0 hr 2 min 24 sec) 
Heartbeat CPU 0 instructions: 60000003 cycles: 15000073 heartbeat IPC: 4 cumulative IPC: 3.99998 (Simulation time: 0 hr 2 min 54 sec) 
Heartbeat CPU 0 instructions: 70000003 cycles: 17500073 heartbeat IPC: 4 cumulative IPC: 3.99998 (Simulation time: 0 hr 3 min 23 sec) 
Heartbeat CPU 0 instructions: 80000003 cycles: 20000073 heartbeat IPC: 4 cumulative IPC: 3.99999 (Simulation time: 0 hr 3 min 51 sec) 
Heartbeat CPU 0 instructions: 90000003 cycles: 22500073 heartbeat IPC: 4 cumulative IPC: 3.99999 (Simulation time: 0 hr 4 min 23 sec) 
Heartbeat CPU 0 instructions: 100000003 cycles: 25000073 heartbeat IPC: 4 cumulative IPC: 3.99999 (Simulation time: 0 hr 4 min 52 sec) 
Heartbeat CPU 0 instructions: 110000003 cycles: 27500073 heartbeat IPC: 4 cumulative IPC: 3.99999 (Simulation time: 0 hr 5 min 22 sec) 
Heartbeat CPU 0 instructions: 120000003 cycles: 30000073 heartbeat IPC: 4 cumulative IPC: 3.99999 (Simulation time: 0 hr 5 min 51 sec) 
Heartbeat CPU 0 instructions: 130000003 cycles: 32500073 heartbeat IPC: 4 cumulative IPC: 3.99999 (Simulation time: 0 hr 6 min 17 sec) 
Heartbeat CPU 0 instructions: 140000003 cycles: 35000073 heartbeat IPC: 4 cumulative IPC: 3.99999 (Simulation time: 0 hr 6 min 43 sec) 
Heartbeat CPU 0 instructions: 150000003 cycles: 37500073 heartbeat IPC: 4 cumulative IPC: 3.99999 (Simulation time: 0 hr 7 min 14 sec) 
Heartbeat CPU 0 instructions: 160000003 cycles: 40000073 heartbeat IPC: 4 cumulative IPC: 3.99999 (Simulation time: 0 hr 7 min 44 sec) 
Heartbeat CPU 0 instructions: 170000003 cycles: 42500073 heartbeat IPC: 4 cumulative IPC: 3.99999 (Simulation time: 0 hr 8 min 15 sec) 
Heartbeat CPU 0 instructions: 180000003 cycles: 45000073 heartbeat IPC: 4 cumulative IPC: 3.99999 (Simulation time: 0 hr 8 min 42 sec) 
Heartbeat CPU 0 instructions: 190000003 cycles: 47500073 heartbeat IPC: 4 cumulative IPC: 3.99999 (Simulation time: 0 hr 9 min 11 sec) 
Heartbeat CPU 0 instructions: 200000003 cycles: 50000073 heartbeat IPC: 4 cumulative IPC: 3.99999 (Simulation time: 0 hr 9 min 37 sec) 

Warmup complete CPU 0 instructions: 200000003 cycles: 50000073 (Simulation time: 0 hr 9 min 37 sec) 

Heartbeat CPU 0 instructions: 210000003 cycles: 121360417 heartbeat IPC: 0.140134 cumulative IPC: 0.140134 (Simulation time: 0 hr 12 min 31 sec) 
Heartbeat CPU 0 instructions: 220000000 cycles: 192586283 heartbeat IPC: 0.140398 cumulative IPC: 0.140266 (Simulation time: 0 hr 15 min 25 sec) 
Heartbeat CPU 0 instructions: 230000002 cycles: 264106102 heartbeat IPC: 0.139821 cumulative IPC: 0.140117 (Simulation time: 0 hr 18 min 15 sec) 
Heartbeat CPU 0 instructions: 240000000 cycles: 336257664 heartbeat IPC: 0.138597 cumulative IPC: 0.139734 (Simulation time: 0 hr 21 min 11 sec) 
Heartbeat CPU 0 instructions: 250000001 cycles: 406933345 heartbeat IPC: 0.141491 cumulative IPC: 0.140082 (Simulation time: 0 hr 24 min 0 sec) 
Heartbeat CPU 0 instructions: 260000002 cycles: 478506220 heartbeat IPC: 0.139718 cumulative IPC: 0.140021 (Simulation time: 0 hr 26 min 59 sec) 
Heartbeat CPU 0 instructions: 270000001 cycles: 548055640 heartbeat IPC: 0.143783 cumulative IPC: 0.140547 (Simulation time: 0 hr 29 min 25 sec) 
Heartbeat CPU 0 instructions: 280000000 cycles: 618349697 heartbeat IPC: 0.14226 cumulative IPC: 0.140758 (Simulation time: 0 hr 31 min 31 sec) 
Heartbeat CPU 0 instructions: 290000000 cycles: 689590960 heartbeat IPC: 0.140368 cumulative IPC: 0.140715 (Simulation time: 0 hr 33 min 37 sec) 
Heartbeat CPU 0 instructions: 300000003 cycles: 759615753 heartbeat IPC: 0.142807 cumulative IPC: 0.140921 (Simulation time: 0 hr 35 min 42 sec) 
Heartbeat CPU 0 instructions: 310000000 cycles: 830420824 heartbeat IPC: 0.141233 cumulative IPC: 0.14095 (Simulation time: 0 hr 37 min 47 sec) 
Heartbeat CPU 0 instructions: 320000000 cycles: 899963154 heartbeat IPC: 0.143797 cumulative IPC: 0.141183 (Simulation time: 0 hr 39 min 52 sec) 
Heartbeat CPU 0 instructions: 330000000 cycles: 970231147 heartbeat IPC: 0.142312 cumulative IPC: 0.141269 (Simulation time: 0 hr 41 min 56 sec) 
Heartbeat CPU 0 instructions: 340000002 cycles: 1040587817 heartbeat IPC: 0.142133 cumulative IPC: 0.14133 (Simulation time: 0 hr 44 min 3 sec) 
Heartbeat CPU 0 instructions: 350000000 cycles: 1110986043 heartbeat IPC: 0.142049 cumulative IPC: 0.141378 (Simulation time: 0 hr 46 min 8 sec) 
Heartbeat CPU 0 instructions: 360000003 cycles: 1181152870 heartbeat IPC: 0.142518 cumulative IPC: 0.141449 (Simulation time: 0 hr 48 min 18 sec) 
Heartbeat CPU 0 instructions: 370000000 cycles: 1251116505 heartbeat IPC: 0.142931 cumulative IPC: 0.141535 (Simulation time: 0 hr 50 min 23 sec) 
Heartbeat CPU 0 instructions: 380000000 cycles: 1321142381 heartbeat IPC: 0.142804 cumulative IPC: 0.141605 (Simulation time: 0 hr 52 min 27 sec) 
Heartbeat CPU 0 instructions: 390000004 cycles: 1391470936 heartbeat IPC: 0.14219 cumulative IPC: 0.141636 (Simulation time: 0 hr 54 min 33 sec) 
Heartbeat CPU 0 instructions: 400000000 cycles: 1460799502 heartbeat IPC: 0.144241 cumulative IPC: 0.141764 (Simulation time: 0 hr 56 min 39 sec) 
Heartbeat CPU 0 instructions: 410000000 cycles: 1531015615 heartbeat IPC: 0.142417 cumulative IPC: 0.141795 (Simulation time: 0 hr 58 min 45 sec) 
Heartbeat CPU 0 instructions: 420000004 cycles: 1601706893 heartbeat IPC: 0.14146 cumulative IPC: 0.141779 (Simulation time: 1 hr 0 min 51 sec) 
Heartbeat CPU 0 instructions: 430000000 cycles: 1671104954 heartbeat IPC: 0.144096 cumulative IPC: 0.141879 (Simulation time: 1 hr 2 min 57 sec) 
Heartbeat CPU 0 instructions: 440000002 cycles: 1741891247 heartbeat IPC: 0.14127 cumulative IPC: 0.141853 (Simulation time: 1 hr 5 min 4 sec) 
Heartbeat CPU 0 instructions: 450000004 cycles: 1811071775 heartbeat IPC: 0.144549 cumulative IPC: 0.141959 (Simulation time: 1 hr 7 min 8 sec) 
Heartbeat CPU 0 instructions: 460000003 cycles: 1880582516 heartbeat IPC: 0.143863 cumulative IPC: 0.142031 (Simulation time: 1 hr 9 min 11 sec) 
Heartbeat CPU 0 instructions: 470000003 cycles: 1951145094 heartbeat IPC: 0.141718 cumulative IPC: 0.14202 (Simulation time: 1 hr 11 min 14 sec) 
Heartbeat CPU 0 instructions: 480000001 cycles: 2020438431 heartbeat IPC: 0.144314 cumulative IPC: 0.1421 (Simulation time: 1 hr 13 min 17 sec) 
Heartbeat CPU 0 instructions: 490000000 cycles: 2089812243 heartbeat IPC: 0.144147 cumulative IPC: 0.14217 (Simulation time: 1 hr 15 min 21 sec) 
Heartbeat CPU 0 instructions: 500000003 cycles: 2159371156 heartbeat IPC: 0.143763 cumulative IPC: 0.142222 (Simulation time: 1 hr 17 min 24 sec) 
Heartbeat CPU 0 instructions: 510000004 cycles: 2229009469 heartbeat IPC: 0.143599 cumulative IPC: 0.142266 (Simulation time: 1 hr 19 min 27 sec) 
Heartbeat CPU 0 instructions: 520000000 cycles: 2298558782 heartbeat IPC: 0.143783 cumulative IPC: 0.142313 (Simulation time: 1 hr 21 min 31 sec) 
Heartbeat CPU 0 instructions: 530000004 cycles: 2368378421 heartbeat IPC: 0.143226 cumulative IPC: 0.142341 (Simulation time: 1 hr 23 min 35 sec) 
Heartbeat CPU 0 instructions: 540000000 cycles: 2438702614 heartbeat IPC: 0.142199 cumulative IPC: 0.142337 (Simulation time: 1 hr 25 min 41 sec) 
Heartbeat CPU 0 instructions: 550000002 cycles: 2509336054 heartbeat IPC: 0.141576 cumulative IPC: 0.142315 (Simulation time: 1 hr 27 min 47 sec) 
Heartbeat CPU 0 instructions: 560000000 cycles: 2578657288 heartbeat IPC: 0.144256 cumulative IPC: 0.142368 (Simulation time: 1 hr 29 min 52 sec) 
Heartbeat CPU 0 instructions: 570000000 cycles: 2648565755 heartbeat IPC: 0.143044 cumulative IPC: 0.142386 (Simulation time: 1 hr 31 min 57 sec) 
Heartbeat CPU 0 instructions: 580000001 cycles: 2717989528 heartbeat IPC: 0.144043 cumulative IPC: 0.142429 (Simulation time: 1 hr 34 min 1 sec) 
Heartbeat CPU 0 instructions: 590000002 cycles: 2788965078 heartbeat IPC: 0.140894 cumulative IPC: 0.14239 (Simulation time: 1 hr 36 min 8 sec) 
Heartbeat CPU 0 instructions: 600000004 cycles: 2858351703 heartbeat IPC: 0.14412 cumulative IPC: 0.142432 (Simulation time: 1 hr 38 min 12 sec) 
Heartbeat CPU 0 instructions: 610000001 cycles: 2927777122 heartbeat IPC: 0.144039 cumulative IPC: 0.142471 (Simulation time: 1 hr 40 min 16 sec) 
Heartbeat CPU 0 instructions: 620000001 cycles: 2998269386 heartbeat IPC: 0.14186 cumulative IPC: 0.142456 (Simulation time: 1 hr 42 min 22 sec) 
Heartbeat CPU 0 instructions: 630000000 cycles: 3067901391 heartbeat IPC: 0.143612 cumulative IPC: 0.142483 (Simulation time: 1 hr 44 min 32 sec) 
Heartbeat CPU 0 instructions: 640000004 cycles: 3137686363 heartbeat IPC: 0.143297 cumulative IPC: 0.142502 (Simulation time: 1 hr 46 min 38 sec) 
Heartbeat CPU 0 instructions: 650000004 cycles: 3207193293 heartbeat IPC: 0.143871 cumulative IPC: 0.142532 (Simulation time: 1 hr 48 min 41 sec) 
Heartbeat CPU 0 instructions: 660000001 cycles: 3276733871 heartbeat IPC: 0.143801 cumulative IPC: 0.142559 (Simulation time: 1 hr 50 min 44 sec) 
Heartbeat CPU 0 instructions: 670000002 cycles: 3346210208 heartbeat IPC: 0.143934 cumulative IPC: 0.142588 (Simulation time: 1 hr 52 min 47 sec) 
Heartbeat CPU 0 instructions: 680000000 cycles: 3416062024 heartbeat IPC: 0.14316 cumulative IPC: 0.1426 (Simulation time: 1 hr 54 min 51 sec) 
Heartbeat CPU 0 instructions: 690000002 cycles: 3486218959 heartbeat IPC: 0.142538 cumulative IPC: 0.142599 (Simulation time: 1 hr 56 min 54 sec) 
Heartbeat CPU 0 instructions: 700000000 cycles: 3555918517 heartbeat IPC: 0.143473 cumulative IPC: 0.142616 (Simulation time: 1 hr 58 min 56 sec) 
Heartbeat CPU 0 instructions: 710000002 cycles: 3625423549 heartbeat IPC: 0.143875 cumulative IPC: 0.14264 (Simulation time: 2 hr 1 min 0 sec) 
Heartbeat CPU 0 instructions: 720000001 cycles: 3695603083 heartbeat IPC: 0.142492 cumulative IPC: 0.142638 (Simulation time: 2 hr 3 min 4 sec) 
Heartbeat CPU 0 instructions: 730000000 cycles: 3765477322 heartbeat IPC: 0.143114 cumulative IPC: 0.142647 (Simulation time: 2 hr 5 min 23 sec) 
Heartbeat CPU 0 instructions: 740000000 cycles: 3834601385 heartbeat IPC: 0.144667 cumulative IPC: 0.142683 (Simulation time: 2 hr 7 min 31 sec) 
Heartbeat CPU 0 instructions: 750000000 cycles: 3904157376 heartbeat IPC: 0.143769 cumulative IPC: 0.142703 (Simulation time: 2 hr 9 min 39 sec) 
Heartbeat CPU 0 instructions: 760000002 cycles: 3973414777 heartbeat IPC: 0.144389 cumulative IPC: 0.142733 (Simulation time: 2 hr 11 min 50 sec) 
Heartbeat CPU 0 instructions: 770000004 cycles: 4043602370 heartbeat IPC: 0.142475 cumulative IPC: 0.142728 (Simulation time: 2 hr 13 min 55 sec) 
Heartbeat CPU 0 instructions: 780000000 cycles: 4113638823 heartbeat IPC: 0.142783 cumulative IPC: 0.142729 (Simulation time: 2 hr 15 min 58 sec) 
Heartbeat CPU 0 instructions: 790000001 cycles: 4183963724 heartbeat IPC: 0.142197 cumulative IPC: 0.14272 (Simulation time: 2 hr 18 min 4 sec) 
Heartbeat CPU 0 instructions: 800000002 cycles: 4252928442 heartbeat IPC: 0.145002 cumulative IPC: 0.142758 (Simulation time: 2 hr 20 min 7 sec) 
Heartbeat CPU 0 instructions: 810000002 cycles: 4322358204 heartbeat IPC: 0.14403 cumulative IPC: 0.142778 (Simulation time: 2 hr 22 min 11 sec) 
Heartbeat CPU 0 instructions: 820000000 cycles: 4391751761 heartbeat IPC: 0.144106 cumulative IPC: 0.1428 (Simulation time: 2 hr 24 min 15 sec) 
Heartbeat CPU 0 instructions: 830000000 cycles: 4460870108 heartbeat IPC: 0.144679 cumulative IPC: 0.142829 (Simulation time: 2 hr 26 min 33 sec) 
Heartbeat CPU 0 instructions: 840000001 cycles: 4530205290 heartbeat IPC: 0.144227 cumulative IPC: 0.142851 (Simulation time: 2 hr 28 min 43 sec) 
Heartbeat CPU 0 instructions: 850000004 cycles: 4599461568 heartbeat IPC: 0.144391 cumulative IPC: 0.142874 (Simulation time: 2 hr 30 min 52 sec) 
Heartbeat CPU 0 instructions: 860000002 cycles: 4669218236 heartbeat IPC: 0.143355 cumulative IPC: 0.142881 (Simulation time: 2 hr 33 min 12 sec) 
Heartbeat CPU 0 instructions: 870000000 cycles: 4738713659 heartbeat IPC: 0.143894 cumulative IPC: 0.142896 (Simulation time: 2 hr 35 min 15 sec) 
Heartbeat CPU 0 instructions: 880000002 cycles: 4807993778 heartbeat IPC: 0.144342 cumulative IPC: 0.142917 (Simulation time: 2 hr 37 min 18 sec) 
Heartbeat CPU 0 instructions: 890000002 cycles: 4878201061 heartbeat IPC: 0.142435 cumulative IPC: 0.14291 (Simulation time: 2 hr 39 min 22 sec) 
Heartbeat CPU 0 instructions: 900000002 cycles: 4947221332 heartbeat IPC: 0.144885 cumulative IPC: 0.142938 (Simulation time: 2 hr 41 min 25 sec) 
Heartbeat CPU 0 instructions: 910000000 cycles: 5016825724 heartbeat IPC: 0.143669 cumulative IPC: 0.142948 (Simulation time: 2 hr 43 min 29 sec) 
Heartbeat CPU 0 instructions: 920000001 cycles: 5086602745 heartbeat IPC: 0.143314 cumulative IPC: 0.142954 (Simulation time: 2 hr 45 min 31 sec) 
Heartbeat CPU 0 instructions: 930000000 cycles: 5156042062 heartbeat IPC: 0.144011 cumulative IPC: 0.142968 (Simulation time: 2 hr 47 min 33 sec) 
Heartbeat CPU 0 instructions: 940000000 cycles: 5225465040 heartbeat IPC: 0.144045 cumulative IPC: 0.142982 (Simulation time: 2 hr 49 min 35 sec) 
Heartbeat CPU 0 instructions: 950000002 cycles: 5296339324 heartbeat IPC: 0.141095 cumulative IPC: 0.142957 (Simulation time: 2 hr 51 min 41 sec) 
Heartbeat CPU 0 instructions: 960000004 cycles: 5364761306 heartbeat IPC: 0.146152 cumulative IPC: 0.142998 (Simulation time: 2 hr 53 min 44 sec) 
Heartbeat CPU 0 instructions: 970000002 cycles: 5433855773 heartbeat IPC: 0.144729 cumulative IPC: 0.14302 (Simulation time: 2 hr 55 min 46 sec) 
Heartbeat CPU 0 instructions: 980000000 cycles: 5503967395 heartbeat IPC: 0.14263 cumulative IPC: 0.143015 (Simulation time: 2 hr 57 min 51 sec) 
Heartbeat CPU 0 instructions: 990000000 cycles: 5572645827 heartbeat IPC: 0.145606 cumulative IPC: 0.143047 (Simulation time: 2 hr 59 min 52 sec) 
Heartbeat CPU 0 instructions: 1000000000 cycles: 5642702408 heartbeat IPC: 0.142742 cumulative IPC: 0.143044 (Simulation time: 3 hr 1 min 56 sec) 
Heartbeat CPU 0 instructions: 1010000003 cycles: 5711465290 heartbeat IPC: 0.145427 cumulative IPC: 0.143073 (Simulation time: 3 hr 4 min 0 sec) 
Heartbeat CPU 0 instructions: 1020000001 cycles: 5780639273 heartbeat IPC: 0.144563 cumulative IPC: 0.143091 (Simulation time: 3 hr 6 min 10 sec) 
Heartbeat CPU 0 instructions: 1030000002 cycles: 5851480474 heartbeat IPC: 0.141161 cumulative IPC: 0.143067 (Simulation time: 3 hr 8 min 13 sec) 
Heartbeat CPU 0 instructions: 1040000004 cycles: 5920696679 heartbeat IPC: 0.144475 cumulative IPC: 0.143084 (Simulation time: 3 hr 10 min 18 sec) 
Heartbeat CPU 0 instructions: 1050000001 cycles: 5990344003 heartbeat IPC: 0.14358 cumulative IPC: 0.143089 (Simulation time: 3 hr 12 min 24 sec) 
Heartbeat CPU 0 instructions: 1060000000 cycles: 6059712120 heartbeat IPC: 0.144158 cumulative IPC: 0.143102 (Simulation time: 3 hr 14 min 34 sec) 
Heartbeat CPU 0 instructions: 1070000000 cycles: 6128942256 heartbeat IPC: 0.144446 cumulative IPC: 0.143117 (Simulation time: 3 hr 16 min 43 sec) 
Heartbeat CPU 0 instructions: 1080000002 cycles: 6197565965 heartbeat IPC: 0.145722 cumulative IPC: 0.143146 (Simulation time: 3 hr 18 min 48 sec) 
Heartbeat CPU 0 instructions: 1090000000 cycles: 6266681624 heartbeat IPC: 0.144685 cumulative IPC: 0.143163 (Simulation time: 3 hr 21 min 1 sec) 
Heartbeat CPU 0 instructions: 1100000001 cycles: 6336890892 heartbeat IPC: 0.142431 cumulative IPC: 0.143155 (Simulation time: 3 hr 23 min 11 sec) 
Heartbeat CPU 0 instructions: 1110000000 cycles: 6405982342 heartbeat IPC: 0.144736 cumulative IPC: 0.143172 (Simulation time: 3 hr 25 min 19 sec) 
Heartbeat CPU 0 instructions: 1120000003 cycles: 6475260685 heartbeat IPC: 0.144345 cumulative IPC: 0.143185 (Simulation time: 3 hr 27 min 21 sec) 
Heartbeat CPU 0 instructions: 1130000002 cycles: 6545082712 heartbeat IPC: 0.143221 cumulative IPC: 0.143185 (Simulation time: 3 hr 29 min 22 sec) 
Heartbeat CPU 0 instructions: 1140000000 cycles: 6615349969 heartbeat IPC: 0.142314 cumulative IPC: 0.143176 (Simulation time: 3 hr 31 min 24 sec) 
Heartbeat CPU 0 instructions: 1150000003 cycles: 6684461047 heartbeat IPC: 0.144695 cumulative IPC: 0.143192 (Simulation time: 3 hr 33 min 23 sec) 
Heartbeat CPU 0 instructions: 1160000000 cycles: 6753593399 heartbeat IPC: 0.14465 cumulative IPC: 0.143207 (Simulation time: 3 hr 35 min 24 sec) 
Heartbeat CPU 0 instructions: 1170000003 cycles: 6823529383 heartbeat IPC: 0.142988 cumulative IPC: 0.143205 (Simulation time: 3 hr 37 min 25 sec) 
Heartbeat CPU 0 instructions: 1180000000 cycles: 6893210778 heartbeat IPC: 0.14351 cumulative IPC: 0.143208 (Simulation time: 3 hr 39 min 26 sec) 
Heartbeat CPU 0 instructions: 1190000002 cycles: 6963674187 heartbeat IPC: 0.141918 cumulative IPC: 0.143194 (Simulation time: 3 hr 41 min 29 sec) 
*** Reached end of trace: tracer/pin/traces/xs-100hashxl-2.champsim.xz
Heartbeat CPU 0 instructions: 1200000001 cycles: 7033150370 heartbeat IPC: 0.143934 cumulative IPC: 0.143202 (Simulation time: 3 hr 43 min 30 sec) 
Finished CPU 0 instructions: 1000000000 cycles: 6983150324 cumulative IPC: 0.143202 (Simulation time: 3 hr 43 min 30 sec) 

ChampSim completed all CPUs

Region of Interest Statistics

CPU 0 cumulative IPC: 0.143202 instructions: 1000000000 cycles: 6983150324
cpu0_DTLB TOTAL     ACCESS:  114703744  HIT:  105780618  MISS:    8923126
cpu0_DTLB LOAD      ACCESS:   98287750  HIT:   89364624  MISS:    8923126
cpu0_DTLB RFO       ACCESS:   16415994  HIT:   16415994  MISS:          0
cpu0_DTLB PREFETCH  ACCESS:          0  HIT:          0  MISS:          0
cpu0_DTLB WRITEBACK ACCESS:          0  HIT:          0  MISS:          0
cpu0_DTLB TRANSLATION ACCESS:          0  HIT:          0  MISS:          0
cpu0_DTLB PREFETCH  REQUESTED:          0  ISSUED:          0  USEFUL:          0  USELESS:          0
cpu0_DTLB AVERAGE MISS LATENCY: 71.0376 cycles
cpu0_ITLB TOTAL     ACCESS:  110765007  HIT:  110765007  MISS:          0
cpu0_ITLB LOAD      ACCESS:  110765007  HIT:  110765007  MISS:          0
cpu0_ITLB RFO       ACCESS:          0  HIT:          0  MISS:          0
cpu0_ITLB PREFETCH  ACCESS:          0  HIT:          0  MISS:          0
cpu0_ITLB WRITEBACK ACCESS:          0  HIT:          0  MISS:          0
cpu0_ITLB TRANSLATION ACCESS:          0  HIT:          0  MISS:          0
cpu0_ITLB PREFETCH  REQUESTED:          0  ISSUED:          0  USEFUL:          0  USELESS:          0
cpu0_ITLB AVERAGE MISS LATENCY: -nan cycles
cpu0_L1I TOTAL     ACCESS:          1  HIT:          1  MISS:          0
cpu0_L1I LOAD      ACCESS:          1  HIT:          1  MISS:          0
cpu0_L1I RFO       ACCESS:          0  HIT:          0  MISS:          0
cpu0_L1I PREFETCH  ACCESS:          0  HIT:          0  MISS:          0
cpu0_L1I WRITEBACK ACCESS:          0  HIT:          0  MISS:          0
cpu0_L1I TRANSLATION ACCESS:          0  HIT:          0  MISS:          0
cpu0_L1I PREFETCH  REQUESTED:          0  ISSUED:          0  USEFUL:          0  USELESS:          0
cpu0_L1I AVERAGE MISS LATENCY: -nan cycles
cpu0_STLB TOTAL     ACCESS:    8923126  HIT:     186285  MISS:    8736841
cpu0_STLB LOAD      ACCESS:    8923126  HIT:     186285  MISS:    8736841
cpu0_STLB RFO       ACCESS:          0  HIT:          0  MISS:          0
cpu0_STLB PREFETCH  ACCESS:          0  HIT:          0  MISS:          0
cpu0_STLB WRITEBACK ACCESS:          0  HIT:          0  MISS:          0
cpu0_STLB TRANSLATION ACCESS:          0  HIT:          0  MISS:          0
cpu0_STLB PREFETCH  REQUESTED:          0  ISSUED:          0  USEFUL:          0  USELESS:          0
cpu0_STLB AVERAGE MISS LATENCY: 63.3568 cycles
cpu0_L1D TOTAL     ACCESS:  253335932  HIT:  176424411  MISS:   76911521
cpu0_L1D LOAD      ACCESS:  109005702  HIT:   68650126  MISS:   40355576
cpu0_L1D RFO       ACCESS:   37078633  HIT:   37070831  MISS:       7802
cpu0_L1D PREFETCH  ACCESS:   99684125  HIT:   67296515  MISS:   32387610
cpu0_L1D WRITEBACK ACCESS:          0  HIT:          0  MISS:          0
cpu0_L1D TRANSLATION ACCESS:    7567472  HIT:    3406939  MISS:    4160533
cpu0_L1D PREFETCH  REQUESTED:  111314785  ISSUED:  110966583  USEFUL:    9990691  USELESS:   24958351
cpu0_L1D AVERAGE MISS LATENCY: 428.452 cycles
cpu0_L2C TOTAL     ACCESS:   79515489  HIT:    2514683  MISS:   77000806
cpu0_L2C LOAD      ACCESS:   37801531  HIT:     121843  MISS:   37679688
cpu0_L2C RFO       ACCESS:        402  HIT:        400  MISS:          2
cpu0_L2C PREFETCH  ACCESS:   37489580  HIT:     578414  MISS:   36911166
cpu0_L2C WRITEBACK ACCESS:      63443  HIT:      62076  MISS:       1367
cpu0_L2C TRANSLATION ACCESS:    4160533  HIT:    1751950  MISS:    2408583
cpu0_L2C PREFETCH  REQUESTED:    3687848  ISSUED:    3531580  USEFUL:        392  USELESS:    2539757
cpu0_L2C AVERAGE MISS LATENCY: 450.374 cycles
LLC TOTAL     ACCESS:   77856021  HIT:    2181954  MISS:   75674067
LLC LOAD      ACCESS:   37679688  HIT:     281644  MISS:   37398044
LLC RFO       ACCESS:          2  HIT:          2  MISS:          0
LLC PREFETCH  ACCESS:   37733786  HIT:     107831  MISS:   37625955
LLC WRITEBACK ACCESS:      33962  HIT:      14178  MISS:      19784
LLC TRANSLATION ACCESS:    2408583  HIT:    1778299  MISS:     630284
LLC PREFETCH  REQUESTED:          0  ISSUED:          0  USEFUL:          0  USELESS:          0
LLC AVERAGE MISS LATENCY: 439.509 cycles
OPTgen accesses: 744191
OPTgen hits: 57972
OPTgen hit rate: 7.78994



DRAM Statistics
 CHANNEL 0
 RQ ROW_BUFFER_HIT:   18236134  ROW_BUFFER_MISS:   57417162
 DBUS AVG_CONGESTED_CYCLE:    3.90736
 WQ ROW_BUFFER_HIT:      19637  ROW_BUFFER_MISS:       1011  FULL:          0


CPU 0 Branch Prediction Accuracy: 86.1731% MPKI: 19.1276 Average ROB Occupancy at Mispredict: 33.9687
Branch type MPKI
BRANCH_DIRECT_JUMP: 1e-06
BRANCH_INDIRECT: 0
BRANCH_CONDITIONAL: 19.1276
BRANCH_DIRECT_CALL: 0
BRANCH_INDIRECT_CALL: 0
BRANCH_RETURN: 0

