
*** ChampSim Multicore Out-of-Order Simulator ***

Warmup Instructions: 1000000
Simulation Instructions: 1000000000
Number of CPUs: 1
Off-chip DRAM Size: 4 GiB Channels: 1 Width: 64-bit Data Rate: 3200 MT/s

VirtualMemory physical capacity: 8588881920 num_ppages: 2096895
VirtualMemory page size: 4096 log2_page_size: 12

CPU 0 runs tracer/pin/traces/spec2k17/603.bwaves_s-3699B.champsimtrace.xz
Basic BTB sets: 1024 ways: 8 indirect buffer size: 4096 RAS size: 64
cpu0_L1D next line prefetcher
cpu0_L2C IP-based stride prefetcher
Initialize Hawkeye state
WARNING: The extended signature CACHE::prefetch_line(ip, base_addr, pf_addr, fill_this_level, prefetch_metadata) is deprecated.
WARNING: Use CACHE::prefetch_line(pf_addr, fill_this_level, prefetch_metadata) instead.

Warmup complete CPU 0 instructions: 1000002 cycles: 274330 (Simulation time: 0 hr 0 min 3 sec) 

Heartbeat CPU 0 instructions: 10000004 cycles: 4874137 heartbeat IPC: 2.05165 cumulative IPC: 1.9566 (Simulation time: 0 hr 0 min 40 sec) 
Heartbeat CPU 0 instructions: 20000001 cycles: 10871889 heartbeat IPC: 1.66729 cumulative IPC: 1.79287 (Simulation time: 0 hr 1 min 32 sec) 
Heartbeat CPU 0 instructions: 30000002 cycles: 18064785 heartbeat IPC: 1.39026 cumulative IPC: 1.63009 (Simulation time: 0 hr 2 min 32 sec) 
Heartbeat CPU 0 instructions: 40000003 cycles: 23238005 heartbeat IPC: 1.93303 cumulative IPC: 1.69833 (Simulation time: 0 hr 3 min 13 sec) 
Heartbeat CPU 0 instructions: 50000000 cycles: 28395611 heartbeat IPC: 1.93888 cumulative IPC: 1.74245 (Simulation time: 0 hr 3 min 54 sec) 
Heartbeat CPU 0 instructions: 60000001 cycles: 33504153 heartbeat IPC: 1.95751 cumulative IPC: 1.77551 (Simulation time: 0 hr 4 min 35 sec) 
Heartbeat CPU 0 instructions: 70000003 cycles: 38635475 heartbeat IPC: 1.94882 cumulative IPC: 1.7987 (Simulation time: 0 hr 5 min 16 sec) 
Heartbeat CPU 0 instructions: 80000000 cycles: 43736238 heartbeat IPC: 1.96049 cumulative IPC: 1.81768 (Simulation time: 0 hr 5 min 56 sec) 
Heartbeat CPU 0 instructions: 90000004 cycles: 48877626 heartbeat IPC: 1.945 cumulative IPC: 1.83115 (Simulation time: 0 hr 6 min 38 sec) 
Heartbeat CPU 0 instructions: 100000002 cycles: 54033258 heartbeat IPC: 1.93963 cumulative IPC: 1.84155 (Simulation time: 0 hr 7 min 18 sec) 
Heartbeat CPU 0 instructions: 110000000 cycles: 59256520 heartbeat IPC: 1.91451 cumulative IPC: 1.84802 (Simulation time: 0 hr 8 min 0 sec) 
Heartbeat CPU 0 instructions: 120000002 cycles: 64418944 heartbeat IPC: 1.93707 cumulative IPC: 1.85518 (Simulation time: 0 hr 8 min 39 sec) 
Heartbeat CPU 0 instructions: 130000004 cycles: 69738801 heartbeat IPC: 1.87975 cumulative IPC: 1.85706 (Simulation time: 0 hr 9 min 21 sec) 
Heartbeat CPU 0 instructions: 140000003 cycles: 75111302 heartbeat IPC: 1.86133 cumulative IPC: 1.85737 (Simulation time: 0 hr 10 min 2 sec) 
Heartbeat CPU 0 instructions: 150000000 cycles: 80387695 heartbeat IPC: 1.89523 cumulative IPC: 1.85986 (Simulation time: 0 hr 10 min 44 sec) 
Heartbeat CPU 0 instructions: 160000004 cycles: 85662255 heartbeat IPC: 1.89589 cumulative IPC: 1.86209 (Simulation time: 0 hr 11 min 25 sec) 
Heartbeat CPU 0 instructions: 170000000 cycles: 91001016 heartbeat IPC: 1.87309 cumulative IPC: 1.86274 (Simulation time: 0 hr 12 min 6 sec) 
Heartbeat CPU 0 instructions: 180000001 cycles: 96397078 heartbeat IPC: 1.8532 cumulative IPC: 1.8622 (Simulation time: 0 hr 12 min 47 sec) 
Heartbeat CPU 0 instructions: 190000000 cycles: 101724424 heartbeat IPC: 1.87711 cumulative IPC: 1.86298 (Simulation time: 0 hr 13 min 28 sec) 
Heartbeat CPU 0 instructions: 200000000 cycles: 106924450 heartbeat IPC: 1.92307 cumulative IPC: 1.86591 (Simulation time: 0 hr 14 min 9 sec) 
Heartbeat CPU 0 instructions: 210000003 cycles: 112229296 heartbeat IPC: 1.88507 cumulative IPC: 1.86682 (Simulation time: 0 hr 14 min 49 sec) 
Heartbeat CPU 0 instructions: 220000003 cycles: 117664219 heartbeat IPC: 1.83995 cumulative IPC: 1.86558 (Simulation time: 0 hr 15 min 31 sec) 
Heartbeat CPU 0 instructions: 230000001 cycles: 122953764 heartbeat IPC: 1.89052 cumulative IPC: 1.86665 (Simulation time: 0 hr 16 min 11 sec) 
Heartbeat CPU 0 instructions: 240000000 cycles: 128279421 heartbeat IPC: 1.8777 cumulative IPC: 1.86711 (Simulation time: 0 hr 16 min 53 sec) 
Heartbeat CPU 0 instructions: 250000001 cycles: 133533932 heartbeat IPC: 1.90313 cumulative IPC: 1.86853 (Simulation time: 0 hr 17 min 34 sec) 
Heartbeat CPU 0 instructions: 260000000 cycles: 138797171 heartbeat IPC: 1.89997 cumulative IPC: 1.86973 (Simulation time: 0 hr 18 min 16 sec) 
Heartbeat CPU 0 instructions: 270000002 cycles: 144134867 heartbeat IPC: 1.87347 cumulative IPC: 1.86987 (Simulation time: 0 hr 18 min 56 sec) 
Heartbeat CPU 0 instructions: 280000003 cycles: 149371015 heartbeat IPC: 1.9098 cumulative IPC: 1.87127 (Simulation time: 0 hr 19 min 38 sec) 
Heartbeat CPU 0 instructions: 290000002 cycles: 154630567 heartbeat IPC: 1.9013 cumulative IPC: 1.87229 (Simulation time: 0 hr 20 min 18 sec) 
Heartbeat CPU 0 instructions: 300000002 cycles: 159948582 heartbeat IPC: 1.8804 cumulative IPC: 1.87256 (Simulation time: 0 hr 20 min 58 sec) 
Heartbeat CPU 0 instructions: 310000001 cycles: 165191550 heartbeat IPC: 1.90732 cumulative IPC: 1.87367 (Simulation time: 0 hr 21 min 37 sec) 
Heartbeat CPU 0 instructions: 320000003 cycles: 170493029 heartbeat IPC: 1.88627 cumulative IPC: 1.87406 (Simulation time: 0 hr 22 min 16 sec) 
Heartbeat CPU 0 instructions: 330000003 cycles: 175829239 heartbeat IPC: 1.87399 cumulative IPC: 1.87406 (Simulation time: 0 hr 22 min 57 sec) 
Heartbeat CPU 0 instructions: 340000000 cycles: 181172153 heartbeat IPC: 1.87164 cumulative IPC: 1.87399 (Simulation time: 0 hr 23 min 36 sec) 
Heartbeat CPU 0 instructions: 350000002 cycles: 186484060 heartbeat IPC: 1.88256 cumulative IPC: 1.87423 (Simulation time: 0 hr 24 min 16 sec) 
Heartbeat CPU 0 instructions: 360000000 cycles: 191906445 heartbeat IPC: 1.84421 cumulative IPC: 1.87338 (Simulation time: 0 hr 24 min 56 sec) 
Heartbeat CPU 0 instructions: 370000001 cycles: 197164147 heartbeat IPC: 1.90197 cumulative IPC: 1.87414 (Simulation time: 0 hr 25 min 36 sec) 
Heartbeat CPU 0 instructions: 380000001 cycles: 202507818 heartbeat IPC: 1.87137 cumulative IPC: 1.87407 (Simulation time: 0 hr 26 min 15 sec) 
Heartbeat CPU 0 instructions: 390000002 cycles: 207793529 heartbeat IPC: 1.89189 cumulative IPC: 1.87453 (Simulation time: 0 hr 26 min 55 sec) 
Heartbeat CPU 0 instructions: 400000001 cycles: 213142823 heartbeat IPC: 1.86941 cumulative IPC: 1.8744 (Simulation time: 0 hr 27 min 36 sec) 
Heartbeat CPU 0 instructions: 410000001 cycles: 218439521 heartbeat IPC: 1.88797 cumulative IPC: 1.87473 (Simulation time: 0 hr 28 min 17 sec) 
Heartbeat CPU 0 instructions: 420000002 cycles: 223709186 heartbeat IPC: 1.89765 cumulative IPC: 1.87527 (Simulation time: 0 hr 28 min 58 sec) 
Heartbeat CPU 0 instructions: 430000000 cycles: 229014062 heartbeat IPC: 1.88506 cumulative IPC: 1.87549 (Simulation time: 0 hr 29 min 39 sec) 
Heartbeat CPU 0 instructions: 440000003 cycles: 234322159 heartbeat IPC: 1.88391 cumulative IPC: 1.87568 (Simulation time: 0 hr 30 min 21 sec) 
Heartbeat CPU 0 instructions: 450000002 cycles: 239529841 heartbeat IPC: 1.92024 cumulative IPC: 1.87665 (Simulation time: 0 hr 31 min 2 sec) 
Heartbeat CPU 0 instructions: 460000004 cycles: 244807633 heartbeat IPC: 1.89473 cumulative IPC: 1.87704 (Simulation time: 0 hr 31 min 44 sec) 
Heartbeat CPU 0 instructions: 470000003 cycles: 249904778 heartbeat IPC: 1.96188 cumulative IPC: 1.87878 (Simulation time: 0 hr 32 min 24 sec) 
Heartbeat CPU 0 instructions: 480000001 cycles: 255065687 heartbeat IPC: 1.93764 cumulative IPC: 1.87997 (Simulation time: 0 hr 33 min 5 sec) 
Heartbeat CPU 0 instructions: 490000003 cycles: 260168044 heartbeat IPC: 1.95988 cumulative IPC: 1.88154 (Simulation time: 0 hr 33 min 46 sec) 
Heartbeat CPU 0 instructions: 500000002 cycles: 265329784 heartbeat IPC: 1.93733 cumulative IPC: 1.88262 (Simulation time: 0 hr 34 min 26 sec) 
Heartbeat CPU 0 instructions: 510000002 cycles: 270435000 heartbeat IPC: 1.95878 cumulative IPC: 1.88406 (Simulation time: 0 hr 35 min 8 sec) 
Heartbeat CPU 0 instructions: 520000003 cycles: 275599955 heartbeat IPC: 1.93613 cumulative IPC: 1.88504 (Simulation time: 0 hr 35 min 49 sec) 
Heartbeat CPU 0 instructions: 530000000 cycles: 283757123 heartbeat IPC: 1.22592 cumulative IPC: 1.86607 (Simulation time: 0 hr 36 min 57 sec) 
Heartbeat CPU 0 instructions: 540000000 cycles: 291038060 heartbeat IPC: 1.37345 cumulative IPC: 1.85374 (Simulation time: 0 hr 37 min 57 sec) 
Heartbeat CPU 0 instructions: 550000003 cycles: 296144445 heartbeat IPC: 1.95833 cumulative IPC: 1.85554 (Simulation time: 0 hr 38 min 38 sec) 
Heartbeat CPU 0 instructions: 560000003 cycles: 301306381 heartbeat IPC: 1.93726 cumulative IPC: 1.85695 (Simulation time: 0 hr 39 min 19 sec) 
Heartbeat CPU 0 instructions: 570000001 cycles: 306412617 heartbeat IPC: 1.95839 cumulative IPC: 1.85864 (Simulation time: 0 hr 40 min 0 sec) 
Heartbeat CPU 0 instructions: 580000002 cycles: 311532244 heartbeat IPC: 1.95327 cumulative IPC: 1.86019 (Simulation time: 0 hr 40 min 41 sec) 
Heartbeat CPU 0 instructions: 590000000 cycles: 316631275 heartbeat IPC: 1.96116 cumulative IPC: 1.86182 (Simulation time: 0 hr 41 min 20 sec) 
Heartbeat CPU 0 instructions: 600000001 cycles: 321731631 heartbeat IPC: 1.96065 cumulative IPC: 1.86339 (Simulation time: 0 hr 42 min 0 sec) 
Heartbeat CPU 0 instructions: 610000000 cycles: 326868279 heartbeat IPC: 1.94679 cumulative IPC: 1.8647 (Simulation time: 0 hr 42 min 41 sec) 
Heartbeat CPU 0 instructions: 620000004 cycles: 332007022 heartbeat IPC: 1.946 cumulative IPC: 1.86596 (Simulation time: 0 hr 43 min 22 sec) 
Heartbeat CPU 0 instructions: 630000004 cycles: 337162750 heartbeat IPC: 1.93959 cumulative IPC: 1.86709 (Simulation time: 0 hr 44 min 3 sec) 
Heartbeat CPU 0 instructions: 640000000 cycles: 342260952 heartbeat IPC: 1.96148 cumulative IPC: 1.86849 (Simulation time: 0 hr 44 min 43 sec) 
Heartbeat CPU 0 instructions: 650000001 cycles: 347394831 heartbeat IPC: 1.94785 cumulative IPC: 1.86967 (Simulation time: 0 hr 45 min 23 sec) 
Heartbeat CPU 0 instructions: 660000003 cycles: 352609331 heartbeat IPC: 1.91773 cumulative IPC: 1.87038 (Simulation time: 0 hr 46 min 3 sec) 
Heartbeat CPU 0 instructions: 670000002 cycles: 357874835 heartbeat IPC: 1.89915 cumulative IPC: 1.8708 (Simulation time: 0 hr 46 min 44 sec) 
Heartbeat CPU 0 instructions: 680000000 cycles: 363175868 heartbeat IPC: 1.88642 cumulative IPC: 1.87103 (Simulation time: 0 hr 47 min 25 sec) 
Heartbeat CPU 0 instructions: 690000000 cycles: 368441056 heartbeat IPC: 1.89927 cumulative IPC: 1.87143 (Simulation time: 0 hr 48 min 7 sec) 
Heartbeat CPU 0 instructions: 700000002 cycles: 373693966 heartbeat IPC: 1.90371 cumulative IPC: 1.87189 (Simulation time: 0 hr 48 min 47 sec) 
Heartbeat CPU 0 instructions: 710000004 cycles: 379004251 heartbeat IPC: 1.88314 cumulative IPC: 1.87205 (Simulation time: 0 hr 49 min 28 sec) 
Heartbeat CPU 0 instructions: 720000000 cycles: 384401097 heartbeat IPC: 1.85293 cumulative IPC: 1.87178 (Simulation time: 0 hr 50 min 9 sec) 
Heartbeat CPU 0 instructions: 730000001 cycles: 389721466 heartbeat IPC: 1.87957 cumulative IPC: 1.87188 (Simulation time: 0 hr 50 min 50 sec) 
Heartbeat CPU 0 instructions: 740000003 cycles: 395021989 heartbeat IPC: 1.88661 cumulative IPC: 1.87208 (Simulation time: 0 hr 51 min 31 sec) 
Heartbeat CPU 0 instructions: 750000002 cycles: 400392046 heartbeat IPC: 1.86218 cumulative IPC: 1.87195 (Simulation time: 0 hr 52 min 12 sec) 
Heartbeat CPU 0 instructions: 760000000 cycles: 405670983 heartbeat IPC: 1.89432 cumulative IPC: 1.87224 (Simulation time: 0 hr 52 min 52 sec) 
Heartbeat CPU 0 instructions: 770000000 cycles: 410903063 heartbeat IPC: 1.91129 cumulative IPC: 1.87274 (Simulation time: 0 hr 53 min 34 sec) 
Heartbeat CPU 0 instructions: 780000001 cycles: 416187057 heartbeat IPC: 1.89251 cumulative IPC: 1.87299 (Simulation time: 0 hr 54 min 15 sec) 
Heartbeat CPU 0 instructions: 790000000 cycles: 421429238 heartbeat IPC: 1.9076 cumulative IPC: 1.87342 (Simulation time: 0 hr 54 min 57 sec) 
Heartbeat CPU 0 instructions: 800000003 cycles: 426698620 heartbeat IPC: 1.89776 cumulative IPC: 1.87372 (Simulation time: 0 hr 55 min 39 sec) 
Heartbeat CPU 0 instructions: 810000002 cycles: 431982692 heartbeat IPC: 1.89248 cumulative IPC: 1.87395 (Simulation time: 0 hr 56 min 20 sec) 
Heartbeat CPU 0 instructions: 820000001 cycles: 437239554 heartbeat IPC: 1.90228 cumulative IPC: 1.87429 (Simulation time: 0 hr 57 min 1 sec) 
Heartbeat CPU 0 instructions: 830000000 cycles: 442479409 heartbeat IPC: 1.90845 cumulative IPC: 1.8747 (Simulation time: 0 hr 57 min 42 sec) 
Heartbeat CPU 0 instructions: 840000001 cycles: 447757338 heartbeat IPC: 1.89468 cumulative IPC: 1.87493 (Simulation time: 0 hr 58 min 23 sec) 
Heartbeat CPU 0 instructions: 850000002 cycles: 452992884 heartbeat IPC: 1.91002 cumulative IPC: 1.87534 (Simulation time: 0 hr 59 min 4 sec) 
Heartbeat CPU 0 instructions: 860000004 cycles: 458257566 heartbeat IPC: 1.89945 cumulative IPC: 1.87561 (Simulation time: 0 hr 59 min 45 sec) 
Heartbeat CPU 0 instructions: 870000000 cycles: 463505970 heartbeat IPC: 1.90534 cumulative IPC: 1.87595 (Simulation time: 1 hr 0 min 27 sec) 
Heartbeat CPU 0 instructions: 880000000 cycles: 468779411 heartbeat IPC: 1.8963 cumulative IPC: 1.87618 (Simulation time: 1 hr 1 min 8 sec) 
Heartbeat CPU 0 instructions: 890000000 cycles: 474028376 heartbeat IPC: 1.90514 cumulative IPC: 1.8765 (Simulation time: 1 hr 1 min 49 sec) 
Heartbeat CPU 0 instructions: 900000001 cycles: 479314041 heartbeat IPC: 1.89191 cumulative IPC: 1.87667 (Simulation time: 1 hr 2 min 31 sec) 
Heartbeat CPU 0 instructions: 910000000 cycles: 484655316 heartbeat IPC: 1.87221 cumulative IPC: 1.87662 (Simulation time: 1 hr 3 min 13 sec) 
Heartbeat CPU 0 instructions: 920000000 cycles: 489855376 heartbeat IPC: 1.92305 cumulative IPC: 1.87712 (Simulation time: 1 hr 3 min 53 sec) 
Heartbeat CPU 0 instructions: 930000000 cycles: 495082478 heartbeat IPC: 1.91311 cumulative IPC: 1.8775 (Simulation time: 1 hr 4 min 34 sec) 
Heartbeat CPU 0 instructions: 940000001 cycles: 500450759 heartbeat IPC: 1.86279 cumulative IPC: 1.87734 (Simulation time: 1 hr 5 min 16 sec) 
Heartbeat CPU 0 instructions: 950000002 cycles: 505803294 heartbeat IPC: 1.86827 cumulative IPC: 1.87724 (Simulation time: 1 hr 5 min 57 sec) 
Heartbeat CPU 0 instructions: 960000000 cycles: 511080393 heartbeat IPC: 1.89498 cumulative IPC: 1.87742 (Simulation time: 1 hr 6 min 38 sec) 
Heartbeat CPU 0 instructions: 970000001 cycles: 516362723 heartbeat IPC: 1.8931 cumulative IPC: 1.87759 (Simulation time: 1 hr 7 min 19 sec) 
Heartbeat CPU 0 instructions: 980000003 cycles: 521803292 heartbeat IPC: 1.83804 cumulative IPC: 1.87717 (Simulation time: 1 hr 8 min 0 sec) 
Heartbeat CPU 0 instructions: 990000002 cycles: 527090658 heartbeat IPC: 1.8913 cumulative IPC: 1.87731 (Simulation time: 1 hr 8 min 42 sec) 
Heartbeat CPU 0 instructions: 1000000000 cycles: 532411296 heartbeat IPC: 1.87947 cumulative IPC: 1.87734 (Simulation time: 1 hr 9 min 24 sec) 
Finished CPU 0 instructions: 1000000002 cycles: 532687093 cumulative IPC: 1.87727 (Simulation time: 1 hr 9 min 28 sec) 

ChampSim completed all CPUs

Region of Interest Statistics

CPU 0 cumulative IPC: 1.87727 instructions: 1000000002 cycles: 532687093
cpu0_DTLB TOTAL     ACCESS:  144046546  HIT:  144043198  MISS:       3348
cpu0_DTLB LOAD      ACCESS:  121636008  HIT:  121635365  MISS:        643
cpu0_DTLB RFO       ACCESS:   22410538  HIT:   22407833  MISS:       2705
cpu0_DTLB PREFETCH  ACCESS:          0  HIT:          0  MISS:          0
cpu0_DTLB WRITEBACK ACCESS:          0  HIT:          0  MISS:          0
cpu0_DTLB TRANSLATION ACCESS:          0  HIT:          0  MISS:          0
cpu0_DTLB PREFETCH  REQUESTED:          0  ISSUED:          0  USEFUL:          0  USELESS:          0
cpu0_DTLB AVERAGE MISS LATENCY: 209.12 cycles
cpu0_ITLB TOTAL     ACCESS:  116681560  HIT:  116681560  MISS:          0
cpu0_ITLB LOAD      ACCESS:  116681560  HIT:  116681560  MISS:          0
cpu0_ITLB RFO       ACCESS:          0  HIT:          0  MISS:          0
cpu0_ITLB PREFETCH  ACCESS:          0  HIT:          0  MISS:          0
cpu0_ITLB WRITEBACK ACCESS:          0  HIT:          0  MISS:          0
cpu0_ITLB TRANSLATION ACCESS:          0  HIT:          0  MISS:          0
cpu0_ITLB PREFETCH  REQUESTED:          0  ISSUED:          0  USEFUL:          0  USELESS:          0
cpu0_ITLB AVERAGE MISS LATENCY: -nan cycles
cpu0_L1I TOTAL     ACCESS:    5877799  HIT:    5877782  MISS:         17
cpu0_L1I LOAD      ACCESS:    5877799  HIT:    5877782  MISS:         17
cpu0_L1I RFO       ACCESS:          0  HIT:          0  MISS:          0
cpu0_L1I PREFETCH  ACCESS:          0  HIT:          0  MISS:          0
cpu0_L1I WRITEBACK ACCESS:          0  HIT:          0  MISS:          0
cpu0_L1I TRANSLATION ACCESS:          0  HIT:          0  MISS:          0
cpu0_L1I PREFETCH  REQUESTED:          0  ISSUED:          0  USEFUL:          0  USELESS:          0
cpu0_L1I AVERAGE MISS LATENCY: 394.824 cycles
cpu0_STLB TOTAL     ACCESS:       3348  HIT:        148  MISS:       3200
cpu0_STLB LOAD      ACCESS:        643  HIT:        105  MISS:        538
cpu0_STLB RFO       ACCESS:       2705  HIT:         43  MISS:       2662
cpu0_STLB PREFETCH  ACCESS:          0  HIT:          0  MISS:          0
cpu0_STLB WRITEBACK ACCESS:          0  HIT:          0  MISS:          0
cpu0_STLB TRANSLATION ACCESS:          0  HIT:          0  MISS:          0
cpu0_STLB PREFETCH  REQUESTED:          0  ISSUED:          0  USEFUL:          0  USELESS:          0
cpu0_STLB AVERAGE MISS LATENCY: 209.376 cycles
cpu0_L1D TOTAL     ACCESS:  320848785  HIT:  320625436  MISS:     223349
cpu0_L1D LOAD      ACCESS:  142407382  HIT:  142399095  MISS:       8287
cpu0_L1D RFO       ACCESS:   38044847  HIT:   37867703  MISS:     177144
cpu0_L1D PREFETCH  ACCESS:  140393357  HIT:  140355709  MISS:      37648
cpu0_L1D WRITEBACK ACCESS:          0  HIT:          0  MISS:          0
cpu0_L1D TRANSLATION ACCESS:       3199  HIT:       2929  MISS:        270
cpu0_L1D PREFETCH  REQUESTED:  142428976  ISSUED:  140449281  USEFUL:      63285  USELESS:       1316
cpu0_L1D AVERAGE MISS LATENCY: 578.206 cycles
cpu0_L2C TOTAL     ACCESS:     382403  HIT:     176451  MISS:     205952
cpu0_L2C LOAD      ACCESS:       5338  HIT:       4516  MISS:        822
cpu0_L2C RFO       ACCESS:     153165  HIT:       6561  MISS:     146604
cpu0_L2C PREFETCH  ACCESS:      64596  HIT:       6321  MISS:      58275
cpu0_L2C WRITEBACK ACCESS:     159034  HIT:     158786  MISS:        248
cpu0_L2C TRANSLATION ACCESS:        270  HIT:        267  MISS:          3
cpu0_L2C PREFETCH  REQUESTED:          6  ISSUED:          6  USEFUL:          0  USELESS:          6
cpu0_L2C AVERAGE MISS LATENCY: 718.172 cycles
LLC TOTAL     ACCESS:     353427  HIT:      44211  MISS:     309216
LLC LOAD      ACCESS:        822  HIT:        124  MISS:        698
LLC RFO       ACCESS:     146604  HIT:         87  MISS:     146517
LLC PREFETCH  ACCESS:      58278  HIT:       1402  MISS:      56876
LLC WRITEBACK ACCESS:     147720  HIT:      42597  MISS:     105123
LLC TRANSLATION ACCESS:          3  HIT:          1  MISS:          2
LLC PREFETCH  REQUESTED:          0  ISSUED:          0  USEFUL:          0  USELESS:          0
LLC AVERAGE MISS LATENCY: 460.433 cycles
OPTgen accesses: 2336
OPTgen hits: 40
OPTgen hit rate: 1.71233



DRAM Statistics
 CHANNEL 0
 RQ ROW_BUFFER_HIT:       1822  ROW_BUFFER_MISS:     202271
 DBUS AVG_CONGESTED_CYCLE:    3.96474
 WQ ROW_BUFFER_HIT:       5708  ROW_BUFFER_MISS:     114553  FULL:          0


CPU 0 Branch Prediction Accuracy: 88.5151% MPKI: 16.6889 Average ROB Occupancy at Mispredict: 54.4878
Branch type MPKI
BRANCH_DIRECT_JUMP: 1e-05
BRANCH_INDIRECT: 2e-06
BRANCH_CONDITIONAL: 16.6888
BRANCH_DIRECT_CALL: 1e-06
BRANCH_INDIRECT_CALL: 0
BRANCH_RETURN: 3e-06

