
*** ChampSim Multicore Out-of-Order Simulator ***

Warmup Instructions: 1000000
Simulation Instructions: 1000000000
Number of CPUs: 1
Off-chip DRAM Size: 4 GiB Channels: 1 Width: 64-bit Data Rate: 3200 MT/s

VirtualMemory physical capacity: 8588881920 num_ppages: 2096895
VirtualMemory page size: 4096 log2_page_size: 12

CPU 0 runs tracer/pin/traces/spec2k6/459.GemsFDTD-1491B.champsimtrace.xz
Basic BTB sets: 1024 ways: 8 indirect buffer size: 4096 RAS size: 64
cpu0_L1D next line prefetcher
cpu0_L2C IP-based stride prefetcher
WARNING: The extended signature CACHE::prefetch_line(ip, base_addr, pf_addr, fill_this_level, prefetch_metadata) is deprecated.
WARNING: Use CACHE::prefetch_line(pf_addr, fill_this_level, prefetch_metadata) instead.

Warmup complete CPU 0 instructions: 1000004 cycles: 310305 (Simulation time: 0 hr 0 min 3 sec) 

Heartbeat CPU 0 instructions: 10000003 cycles: 49716679 heartbeat IPC: 0.20114 cumulative IPC: 0.182163 (Simulation time: 0 hr 3 min 33 sec) 
Heartbeat CPU 0 instructions: 20000000 cycles: 104879206 heartbeat IPC: 0.181282 cumulative IPC: 0.181698 (Simulation time: 0 hr 7 min 32 sec) 
Heartbeat CPU 0 instructions: 30000004 cycles: 160185187 heartbeat IPC: 0.180812 cumulative IPC: 0.181392 (Simulation time: 0 hr 11 min 41 sec) 
Heartbeat CPU 0 instructions: 40000003 cycles: 215663198 heartbeat IPC: 0.180252 cumulative IPC: 0.181098 (Simulation time: 0 hr 16 min 36 sec) 
Heartbeat CPU 0 instructions: 50000002 cycles: 270762585 heartbeat IPC: 0.18149 cumulative IPC: 0.181178 (Simulation time: 0 hr 21 min 29 sec) 
Heartbeat CPU 0 instructions: 60000004 cycles: 325877614 heartbeat IPC: 0.181439 cumulative IPC: 0.181222 (Simulation time: 0 hr 26 min 32 sec) 
Heartbeat CPU 0 instructions: 70000001 cycles: 381036609 heartbeat IPC: 0.181294 cumulative IPC: 0.181233 (Simulation time: 0 hr 31 min 50 sec) 
Heartbeat CPU 0 instructions: 80000003 cycles: 436152982 heartbeat IPC: 0.181434 cumulative IPC: 0.181258 (Simulation time: 0 hr 37 min 26 sec) 
Heartbeat CPU 0 instructions: 90000003 cycles: 491558087 heartbeat IPC: 0.180489 cumulative IPC: 0.181171 (Simulation time: 0 hr 43 min 20 sec) 
Heartbeat CPU 0 instructions: 100000003 cycles: 546787591 heartbeat IPC: 0.181063 cumulative IPC: 0.18116 (Simulation time: 0 hr 49 min 11 sec) 
Heartbeat CPU 0 instructions: 110000002 cycles: 602096437 heartbeat IPC: 0.180803 cumulative IPC: 0.181127 (Simulation time: 0 hr 55 min 4 sec) 
Heartbeat CPU 0 instructions: 120000004 cycles: 657290452 heartbeat IPC: 0.181179 cumulative IPC: 0.181132 (Simulation time: 1 hr 0 min 57 sec) 
Heartbeat CPU 0 instructions: 130000003 cycles: 712525820 heartbeat IPC: 0.181043 cumulative IPC: 0.181125 (Simulation time: 1 hr 6 min 33 sec) 
Heartbeat CPU 0 instructions: 140000004 cycles: 767610695 heartbeat IPC: 0.181538 cumulative IPC: 0.181155 (Simulation time: 1 hr 12 min 8 sec) 
Heartbeat CPU 0 instructions: 150000002 cycles: 822820587 heartbeat IPC: 0.181127 cumulative IPC: 0.181153 (Simulation time: 1 hr 17 min 42 sec) 
Heartbeat CPU 0 instructions: 160000001 cycles: 877989749 heartbeat IPC: 0.181261 cumulative IPC: 0.18116 (Simulation time: 1 hr 23 min 9 sec) 
Heartbeat CPU 0 instructions: 170000001 cycles: 933274047 heartbeat IPC: 0.180883 cumulative IPC: 0.181143 (Simulation time: 1 hr 28 min 32 sec) 
Heartbeat CPU 0 instructions: 180000002 cycles: 988405304 heartbeat IPC: 0.181385 cumulative IPC: 0.181157 (Simulation time: 1 hr 33 min 55 sec) 
Heartbeat CPU 0 instructions: 190000001 cycles: 1043568374 heartbeat IPC: 0.181281 cumulative IPC: 0.181163 (Simulation time: 1 hr 39 min 19 sec) 
Heartbeat CPU 0 instructions: 200000000 cycles: 1098868400 heartbeat IPC: 0.180832 cumulative IPC: 0.181147 (Simulation time: 1 hr 44 min 56 sec) 
Heartbeat CPU 0 instructions: 210000004 cycles: 1154360624 heartbeat IPC: 0.180205 cumulative IPC: 0.181101 (Simulation time: 1 hr 50 min 41 sec) 
Heartbeat CPU 0 instructions: 220000000 cycles: 1209530911 heartbeat IPC: 0.181257 cumulative IPC: 0.181108 (Simulation time: 1 hr 56 min 8 sec) 
Heartbeat CPU 0 instructions: 230000000 cycles: 1264724290 heartbeat IPC: 0.181181 cumulative IPC: 0.181112 (Simulation time: 2 hr 1 min 52 sec) 
Heartbeat CPU 0 instructions: 240000003 cycles: 1319978697 heartbeat IPC: 0.180981 cumulative IPC: 0.181106 (Simulation time: 2 hr 7 min 47 sec) 
Heartbeat CPU 0 instructions: 250000003 cycles: 1375130523 heartbeat IPC: 0.181318 cumulative IPC: 0.181115 (Simulation time: 2 hr 13 min 40 sec) 
Heartbeat CPU 0 instructions: 260000003 cycles: 1430441644 heartbeat IPC: 0.180795 cumulative IPC: 0.181102 (Simulation time: 2 hr 19 min 34 sec) 
Heartbeat CPU 0 instructions: 270000000 cycles: 1485603014 heartbeat IPC: 0.181286 cumulative IPC: 0.181109 (Simulation time: 2 hr 25 min 18 sec) 
Heartbeat CPU 0 instructions: 280000003 cycles: 1540763206 heartbeat IPC: 0.18129 cumulative IPC: 0.181116 (Simulation time: 2 hr 31 min 4 sec) 
Heartbeat CPU 0 instructions: 290000000 cycles: 1596048743 heartbeat IPC: 0.180879 cumulative IPC: 0.181107 (Simulation time: 2 hr 36 min 56 sec) 
Heartbeat CPU 0 instructions: 300000002 cycles: 1645806825 heartbeat IPC: 0.200972 cumulative IPC: 0.181708 (Simulation time: 2 hr 42 min 18 sec) 
Heartbeat CPU 0 instructions: 310000000 cycles: 1669280556 heartbeat IPC: 0.426008 cumulative IPC: 0.185144 (Simulation time: 2 hr 45 min 22 sec) 
Heartbeat CPU 0 instructions: 320000001 cycles: 1693013854 heartbeat IPC: 0.421349 cumulative IPC: 0.188456 (Simulation time: 2 hr 48 min 27 sec) 
Heartbeat CPU 0 instructions: 330000000 cycles: 1716825835 heartbeat IPC: 0.419957 cumulative IPC: 0.191667 (Simulation time: 2 hr 51 min 32 sec) 
Heartbeat CPU 0 instructions: 340000000 cycles: 1740598002 heartbeat IPC: 0.42066 cumulative IPC: 0.194795 (Simulation time: 2 hr 54 min 37 sec) 
Heartbeat CPU 0 instructions: 350000000 cycles: 1764326312 heartbeat IPC: 0.421438 cumulative IPC: 0.197844 (Simulation time: 2 hr 57 min 42 sec) 
Heartbeat CPU 0 instructions: 360000001 cycles: 1788044477 heartbeat IPC: 0.421618 cumulative IPC: 0.200813 (Simulation time: 3 hr 0 min 46 sec) 
Heartbeat CPU 0 instructions: 370000001 cycles: 1811716374 heartbeat IPC: 0.422442 cumulative IPC: 0.203709 (Simulation time: 3 hr 3 min 52 sec) 
Heartbeat CPU 0 instructions: 380000001 cycles: 1835466588 heartbeat IPC: 0.421049 cumulative IPC: 0.206522 (Simulation time: 3 hr 6 min 56 sec) 
Heartbeat CPU 0 instructions: 390000001 cycles: 1859138972 heartbeat IPC: 0.422433 cumulative IPC: 0.209272 (Simulation time: 3 hr 10 min 1 sec) 
Heartbeat CPU 0 instructions: 400000002 cycles: 1882861042 heartbeat IPC: 0.421548 cumulative IPC: 0.211946 (Simulation time: 3 hr 13 min 3 sec) 
Heartbeat CPU 0 instructions: 410000003 cycles: 1906570105 heartbeat IPC: 0.42178 cumulative IPC: 0.214556 (Simulation time: 3 hr 15 min 56 sec) 
Heartbeat CPU 0 instructions: 420000000 cycles: 1930267492 heartbeat IPC: 0.421987 cumulative IPC: 0.217103 (Simulation time: 3 hr 18 min 50 sec) 
Heartbeat CPU 0 instructions: 430000004 cycles: 1965046065 heartbeat IPC: 0.287533 cumulative IPC: 0.21835 (Simulation time: 3 hr 22 min 54 sec) 
Heartbeat CPU 0 instructions: 440000004 cycles: 2091198658 heartbeat IPC: 0.0792691 cumulative IPC: 0.209959 (Simulation time: 3 hr 34 min 58 sec) 
Heartbeat CPU 0 instructions: 450000001 cycles: 2114181209 heartbeat IPC: 0.435113 cumulative IPC: 0.212407 (Simulation time: 3 hr 37 min 32 sec) 
Heartbeat CPU 0 instructions: 460000001 cycles: 2137859556 heartbeat IPC: 0.422327 cumulative IPC: 0.214732 (Simulation time: 3 hr 40 min 7 sec) 
Heartbeat CPU 0 instructions: 470000001 cycles: 2161547235 heartbeat IPC: 0.42216 cumulative IPC: 0.217005 (Simulation time: 3 hr 42 min 41 sec) 
Heartbeat CPU 0 instructions: 480000000 cycles: 2185211377 heartbeat IPC: 0.42258 cumulative IPC: 0.219232 (Simulation time: 3 hr 45 min 14 sec) 
Heartbeat CPU 0 instructions: 490000004 cycles: 2208999794 heartbeat IPC: 0.420373 cumulative IPC: 0.221398 (Simulation time: 3 hr 47 min 53 sec) 
Heartbeat CPU 0 instructions: 500000004 cycles: 2232641523 heartbeat IPC: 0.422981 cumulative IPC: 0.223533 (Simulation time: 3 hr 50 min 24 sec) 
Heartbeat CPU 0 instructions: 510000003 cycles: 2256348276 heartbeat IPC: 0.421821 cumulative IPC: 0.225617 (Simulation time: 3 hr 52 min 56 sec) 
Heartbeat CPU 0 instructions: 520000000 cycles: 2279942811 heartbeat IPC: 0.423827 cumulative IPC: 0.227668 (Simulation time: 3 hr 55 min 27 sec) 
Heartbeat CPU 0 instructions: 530000002 cycles: 2303628152 heartbeat IPC: 0.422202 cumulative IPC: 0.229669 (Simulation time: 3 hr 58 min 0 sec) 
Heartbeat CPU 0 instructions: 540000000 cycles: 2327354374 heartbeat IPC: 0.421475 cumulative IPC: 0.231624 (Simulation time: 4 hr 0 min 24 sec) 
Heartbeat CPU 0 instructions: 550000000 cycles: 2350991313 heartbeat IPC: 0.423067 cumulative IPC: 0.233549 (Simulation time: 4 hr 2 min 51 sec) 
Heartbeat CPU 0 instructions: 560000004 cycles: 2374715702 heartbeat IPC: 0.421507 cumulative IPC: 0.235427 (Simulation time: 4 hr 4 min 58 sec) 
Heartbeat CPU 0 instructions: 570000004 cycles: 2398383480 heartbeat IPC: 0.422515 cumulative IPC: 0.237274 (Simulation time: 4 hr 7 min 4 sec) 
Heartbeat CPU 0 instructions: 580000004 cycles: 2422050410 heartbeat IPC: 0.422531 cumulative IPC: 0.239084 (Simulation time: 4 hr 9 min 35 sec) 
Heartbeat CPU 0 instructions: 590000003 cycles: 2439570987 heartbeat IPC: 0.570757 cumulative IPC: 0.241467 (Simulation time: 4 hr 11 min 47 sec) 
Heartbeat CPU 0 instructions: 600000002 cycles: 2456352396 heartbeat IPC: 0.595897 cumulative IPC: 0.243888 (Simulation time: 4 hr 13 min 47 sec) 
Heartbeat CPU 0 instructions: 610000000 cycles: 2472525394 heartbeat IPC: 0.618314 cumulative IPC: 0.246338 (Simulation time: 4 hr 15 min 42 sec) 
Heartbeat CPU 0 instructions: 620000000 cycles: 2489320079 heartbeat IPC: 0.595426 cumulative IPC: 0.248693 (Simulation time: 4 hr 17 min 39 sec) 
Heartbeat CPU 0 instructions: 630000001 cycles: 2506124011 heartbeat IPC: 0.595099 cumulative IPC: 0.251016 (Simulation time: 4 hr 19 min 36 sec) 
Heartbeat CPU 0 instructions: 640000000 cycles: 2522442892 heartbeat IPC: 0.612787 cumulative IPC: 0.253357 (Simulation time: 4 hr 21 min 25 sec) 
Heartbeat CPU 0 instructions: 650000003 cycles: 2539249499 heartbeat IPC: 0.595004 cumulative IPC: 0.255619 (Simulation time: 4 hr 23 min 17 sec) 
Heartbeat CPU 0 instructions: 660000000 cycles: 2556051045 heartbeat IPC: 0.595183 cumulative IPC: 0.257851 (Simulation time: 4 hr 25 min 11 sec) 
Heartbeat CPU 0 instructions: 670000004 cycles: 2572318155 heartbeat IPC: 0.614738 cumulative IPC: 0.260108 (Simulation time: 4 hr 27 min 4 sec) 
Heartbeat CPU 0 instructions: 680000000 cycles: 2588992851 heartbeat IPC: 0.599711 cumulative IPC: 0.262296 (Simulation time: 4 hr 28 min 48 sec) 
Heartbeat CPU 0 instructions: 690000001 cycles: 2605848183 heartbeat IPC: 0.593284 cumulative IPC: 0.264437 (Simulation time: 4 hr 30 min 39 sec) 
Heartbeat CPU 0 instructions: 700000001 cycles: 2621384082 heartbeat IPC: 0.64367 cumulative IPC: 0.266685 (Simulation time: 4 hr 32 min 26 sec) 
Heartbeat CPU 0 instructions: 710000004 cycles: 2636571875 heartbeat IPC: 0.658424 cumulative IPC: 0.268941 (Simulation time: 4 hr 34 min 0 sec) 
Heartbeat CPU 0 instructions: 720000002 cycles: 2653522410 heartbeat IPC: 0.589952 cumulative IPC: 0.270992 (Simulation time: 4 hr 35 min 40 sec) 
Heartbeat CPU 0 instructions: 730000002 cycles: 2670531695 heartbeat IPC: 0.587914 cumulative IPC: 0.273011 (Simulation time: 4 hr 37 min 27 sec) 
Heartbeat CPU 0 instructions: 740000000 cycles: 2687297451 heartbeat IPC: 0.596454 cumulative IPC: 0.275029 (Simulation time: 4 hr 39 min 4 sec) 
Heartbeat CPU 0 instructions: 750000002 cycles: 2704277829 heartbeat IPC: 0.588915 cumulative IPC: 0.277 (Simulation time: 4 hr 40 min 48 sec) 
Heartbeat CPU 0 instructions: 760000000 cycles: 2721295621 heartbeat IPC: 0.58762 cumulative IPC: 0.278943 (Simulation time: 4 hr 42 min 37 sec) 
Heartbeat CPU 0 instructions: 770000002 cycles: 2738225607 heartbeat IPC: 0.590668 cumulative IPC: 0.280871 (Simulation time: 4 hr 44 min 24 sec) 
Heartbeat CPU 0 instructions: 780000003 cycles: 2755073897 heartbeat IPC: 0.593532 cumulative IPC: 0.282783 (Simulation time: 4 hr 46 min 21 sec) 
Heartbeat CPU 0 instructions: 790000003 cycles: 2772171128 heartbeat IPC: 0.58489 cumulative IPC: 0.284646 (Simulation time: 4 hr 48 min 0 sec) 
Heartbeat CPU 0 instructions: 800000001 cycles: 2789055390 heartbeat IPC: 0.592267 cumulative IPC: 0.286509 (Simulation time: 4 hr 49 min 35 sec) 
Heartbeat CPU 0 instructions: 810000003 cycles: 2805722474 heartbeat IPC: 0.599985 cumulative IPC: 0.288371 (Simulation time: 4 hr 51 min 6 sec) 
Heartbeat CPU 0 instructions: 820000001 cycles: 2822789384 heartbeat IPC: 0.585929 cumulative IPC: 0.29017 (Simulation time: 4 hr 52 min 38 sec) 
Heartbeat CPU 0 instructions: 830000000 cycles: 2839964784 heartbeat IPC: 0.582228 cumulative IPC: 0.291937 (Simulation time: 4 hr 54 min 11 sec) 
Heartbeat CPU 0 instructions: 840000003 cycles: 2856437138 heartbeat IPC: 0.607078 cumulative IPC: 0.293754 (Simulation time: 4 hr 55 min 45 sec) 
Heartbeat CPU 0 instructions: 850000003 cycles: 2872976229 heartbeat IPC: 0.604628 cumulative IPC: 0.295544 (Simulation time: 4 hr 57 min 18 sec) 
Heartbeat CPU 0 instructions: 860000003 cycles: 2889724026 heartbeat IPC: 0.597093 cumulative IPC: 0.297292 (Simulation time: 4 hr 58 min 50 sec) 
Heartbeat CPU 0 instructions: 870000002 cycles: 2906541837 heartbeat IPC: 0.594608 cumulative IPC: 0.299013 (Simulation time: 5 hr 0 min 27 sec) 
Heartbeat CPU 0 instructions: 880000002 cycles: 2923480291 heartbeat IPC: 0.590373 cumulative IPC: 0.300701 (Simulation time: 5 hr 1 min 58 sec) 
Heartbeat CPU 0 instructions: 890000001 cycles: 2940365629 heartbeat IPC: 0.59223 cumulative IPC: 0.302375 (Simulation time: 5 hr 3 min 28 sec) 
Heartbeat CPU 0 instructions: 900000001 cycles: 2957137172 heartbeat IPC: 0.596248 cumulative IPC: 0.304042 (Simulation time: 5 hr 4 min 58 sec) 
Heartbeat CPU 0 instructions: 910000000 cycles: 2973474454 heartbeat IPC: 0.612097 cumulative IPC: 0.305735 (Simulation time: 5 hr 6 min 27 sec) 
Heartbeat CPU 0 instructions: 920000000 cycles: 2990054276 heartbeat IPC: 0.603143 cumulative IPC: 0.307384 (Simulation time: 5 hr 7 min 56 sec) 
Heartbeat CPU 0 instructions: 930000004 cycles: 3005069063 heartbeat IPC: 0.66601 cumulative IPC: 0.309176 (Simulation time: 5 hr 9 min 15 sec) 
Heartbeat CPU 0 instructions: 940000000 cycles: 3021602580 heartbeat IPC: 0.604832 cumulative IPC: 0.310794 (Simulation time: 5 hr 10 min 45 sec) 
Heartbeat CPU 0 instructions: 950000001 cycles: 3039201771 heartbeat IPC: 0.568208 cumulative IPC: 0.312285 (Simulation time: 5 hr 12 min 18 sec) 
Heartbeat CPU 0 instructions: 960000004 cycles: 3056468337 heartbeat IPC: 0.579154 cumulative IPC: 0.313793 (Simulation time: 5 hr 13 min 50 sec) 
Heartbeat CPU 0 instructions: 970000003 cycles: 3073926654 heartbeat IPC: 0.572793 cumulative IPC: 0.315264 (Simulation time: 5 hr 15 min 22 sec) 
Heartbeat CPU 0 instructions: 980000003 cycles: 3091753063 heartbeat IPC: 0.560965 cumulative IPC: 0.316681 (Simulation time: 5 hr 16 min 55 sec) 
Heartbeat CPU 0 instructions: 990000003 cycles: 3109564203 heartbeat IPC: 0.561446 cumulative IPC: 0.318083 (Simulation time: 5 hr 18 min 29 sec) 
Heartbeat CPU 0 instructions: 1000000002 cycles: 3127050965 heartbeat IPC: 0.571861 cumulative IPC: 0.319502 (Simulation time: 5 hr 20 min 2 sec) 
Finished CPU 0 instructions: 1000000004 cycles: 3128470109 cumulative IPC: 0.319645 (Simulation time: 5 hr 20 min 11 sec) 

ChampSim completed all CPUs

Region of Interest Statistics

CPU 0 cumulative IPC: 0.319645 instructions: 1000000004 cycles: 3128470109
cpu0_DTLB TOTAL     ACCESS:  438822237  HIT:  436121526  MISS:    2700711
cpu0_DTLB LOAD      ACCESS:  393768691  HIT:  391751141  MISS:    2017550
cpu0_DTLB RFO       ACCESS:   45053546  HIT:   44370385  MISS:     683161
cpu0_DTLB PREFETCH  ACCESS:          0  HIT:          0  MISS:          0
cpu0_DTLB WRITEBACK ACCESS:          0  HIT:          0  MISS:          0
cpu0_DTLB TRANSLATION ACCESS:          0  HIT:          0  MISS:          0
cpu0_DTLB PREFETCH  REQUESTED:          0  ISSUED:          0  USEFUL:          0  USELESS:          0
cpu0_DTLB AVERAGE MISS LATENCY: 41.1093 cycles
cpu0_ITLB TOTAL     ACCESS:   11794344  HIT:   11794333  MISS:         11
cpu0_ITLB LOAD      ACCESS:   11794344  HIT:   11794333  MISS:         11
cpu0_ITLB RFO       ACCESS:          0  HIT:          0  MISS:          0
cpu0_ITLB PREFETCH  ACCESS:          0  HIT:          0  MISS:          0
cpu0_ITLB WRITEBACK ACCESS:          0  HIT:          0  MISS:          0
cpu0_ITLB TRANSLATION ACCESS:          0  HIT:          0  MISS:          0
cpu0_ITLB PREFETCH  REQUESTED:          0  ISSUED:          0  USEFUL:          0  USELESS:          0
cpu0_ITLB AVERAGE MISS LATENCY: 591.091 cycles
cpu0_L1I TOTAL     ACCESS:   69375109  HIT:   69374657  MISS:        452
cpu0_L1I LOAD      ACCESS:   69375109  HIT:   69374657  MISS:        452
cpu0_L1I RFO       ACCESS:          0  HIT:          0  MISS:          0
cpu0_L1I PREFETCH  ACCESS:          0  HIT:          0  MISS:          0
cpu0_L1I WRITEBACK ACCESS:          0  HIT:          0  MISS:          0
cpu0_L1I TRANSLATION ACCESS:          0  HIT:          0  MISS:          0
cpu0_L1I PREFETCH  REQUESTED:          0  ISSUED:          0  USEFUL:          0  USELESS:          0
cpu0_L1I AVERAGE MISS LATENCY: 927.25 cycles
cpu0_STLB TOTAL     ACCESS:    2700722  HIT:    2068842  MISS:     631880
cpu0_STLB LOAD      ACCESS:    2017561  HIT:    1385683  MISS:     631878
cpu0_STLB RFO       ACCESS:     683161  HIT:     683159  MISS:          2
cpu0_STLB PREFETCH  ACCESS:          0  HIT:          0  MISS:          0
cpu0_STLB WRITEBACK ACCESS:          0  HIT:          0  MISS:          0
cpu0_STLB TRANSLATION ACCESS:          0  HIT:          0  MISS:          0
cpu0_STLB PREFETCH  REQUESTED:          0  ISSUED:          0  USEFUL:          0  USELESS:          0
cpu0_STLB AVERAGE MISS LATENCY: 137.221 cycles
cpu0_L1D TOTAL     ACCESS:  772482283  HIT:  756079443  MISS:   16402840
cpu0_L1D LOAD      ACCESS:  429649964  HIT:  422198009  MISS:    7451955
cpu0_L1D RFO       ACCESS:   66908399  HIT:   66902706  MISS:       5693
cpu0_L1D PREFETCH  ACCESS:  275293407  HIT:  266472425  MISS:    8820982
cpu0_L1D WRITEBACK ACCESS:          0  HIT:          0  MISS:          0
cpu0_L1D TRANSLATION ACCESS:     630513  HIT:     506303  MISS:     124210
cpu0_L1D PREFETCH  REQUESTED:  437145539  ISSUED:  323382179  USEFUL:   12835039  USELESS:    1026783
cpu0_L1D AVERAGE MISS LATENCY: 806.973 cycles
cpu0_L2C TOTAL     ACCESS:   22440956  HIT:    7431400  MISS:   15009556
cpu0_L2C LOAD      ACCESS:    2407170  HIT:     292995  MISS:    2114175
cpu0_L2C RFO       ACCESS:       2907  HIT:       2870  MISS:         37
cpu0_L2C PREFETCH  ACCESS:   14003210  HIT:    1111182  MISS:   12892028
cpu0_L2C WRITEBACK ACCESS:    5903459  HIT:    5902247  MISS:       1212
cpu0_L2C TRANSLATION ACCESS:     124210  HIT:     122106  MISS:       2104
cpu0_L2C PREFETCH  REQUESTED:     181537  ISSUED:     181534  USEFUL:      23614  USELESS:      37512
cpu0_L2C AVERAGE MISS LATENCY: 1443.55 cycles
LLC TOTAL     ACCESS:   20911743  HIT:    6904537  MISS:   14007206
LLC LOAD      ACCESS:    2114175  HIT:     267643  MISS:    1846532
LLC RFO       ACCESS:         37  HIT:          1  MISS:         36
LLC PREFETCH  ACCESS:   12932019  HIT:     772668  MISS:   12159351
LLC WRITEBACK ACCESS:    5863408  HIT:    5862677  MISS:        731
LLC TRANSLATION ACCESS:       2104  HIT:       1548  MISS:        556
LLC PREFETCH  REQUESTED:          0  ISSUED:          0  USEFUL:          0  USELESS:          0
LLC AVERAGE MISS LATENCY: 1521.68 cycles

DRAM Statistics
 CHANNEL 0
 RQ ROW_BUFFER_HIT:      57924  ROW_BUFFER_MISS:   13948549
 DBUS AVG_CONGESTED_CYCLE:    3.99712
 WQ ROW_BUFFER_HIT:      57033  ROW_BUFFER_MISS:    5798156  FULL:          0


CPU 0 Branch Prediction Accuracy: 98.1793% MPKI: 0.200776 Average ROB Occupancy at Mispredict: 123.659
Branch type MPKI
BRANCH_DIRECT_JUMP: 1.5e-05
BRANCH_INDIRECT: 0
BRANCH_CONDITIONAL: 0.200759
BRANCH_DIRECT_CALL: 1e-06
BRANCH_INDIRECT_CALL: 0
BRANCH_RETURN: 1e-06

