
*** ChampSim Multicore Out-of-Order Simulator ***

Warmup Instructions: 1000000
Simulation Instructions: 1000000000
Number of CPUs: 1
Off-chip DRAM Size: 4 GiB Channels: 1 Width: 64-bit Data Rate: 3200 MT/s

VirtualMemory physical capacity: 8588881920 num_ppages: 2096895
VirtualMemory page size: 4096 log2_page_size: 12

CPU 0 runs tracer/pin/traces/spec2k17/623.xalancbmk_s-700B.champsimtrace.xz
Basic BTB sets: 1024 ways: 8 indirect buffer size: 4096 RAS size: 64
cpu0_L1D next line prefetcher
cpu0_L2C IP-based stride prefetcher
WARNING: The extended signature CACHE::prefetch_line(ip, base_addr, pf_addr, fill_this_level, prefetch_metadata) is deprecated.
WARNING: Use CACHE::prefetch_line(pf_addr, fill_this_level, prefetch_metadata) instead.

Warmup complete CPU 0 instructions: 1000002 cycles: 281106 (Simulation time: 0 hr 0 min 3 sec) 

Heartbeat CPU 0 instructions: 10000000 cycles: 12057881 heartbeat IPC: 0.829333 cumulative IPC: 0.764216 (Simulation time: 0 hr 0 min 59 sec) 
Heartbeat CPU 0 instructions: 20000001 cycles: 25622758 heartbeat IPC: 0.737198 cumulative IPC: 0.749754 (Simulation time: 0 hr 2 min 5 sec) 
Heartbeat CPU 0 instructions: 30000002 cycles: 43087885 heartbeat IPC: 0.57257 cumulative IPC: 0.677463 (Simulation time: 0 hr 3 min 19 sec) 
Heartbeat CPU 0 instructions: 40000003 cycles: 56773963 heartbeat IPC: 0.73067 cumulative IPC: 0.690353 (Simulation time: 0 hr 4 min 25 sec) 
Heartbeat CPU 0 instructions: 50000003 cycles: 69548245 heartbeat IPC: 0.782823 cumulative IPC: 0.707406 (Simulation time: 0 hr 5 min 28 sec) 
Heartbeat CPU 0 instructions: 60000004 cycles: 81086234 heartbeat IPC: 0.866702 cumulative IPC: 0.730152 (Simulation time: 0 hr 6 min 31 sec) 
Heartbeat CPU 0 instructions: 70000000 cycles: 96915734 heartbeat IPC: 0.631732 cumulative IPC: 0.71403 (Simulation time: 0 hr 7 min 56 sec) 
Heartbeat CPU 0 instructions: 80000000 cycles: 114286960 heartbeat IPC: 0.575665 cumulative IPC: 0.692947 (Simulation time: 0 hr 9 min 26 sec) 
Heartbeat CPU 0 instructions: 90000000 cycles: 129186464 heartbeat IPC: 0.671163 cumulative IPC: 0.690429 (Simulation time: 0 hr 10 min 53 sec) 
Heartbeat CPU 0 instructions: 100000001 cycles: 145460185 heartbeat IPC: 0.614488 cumulative IPC: 0.681916 (Simulation time: 0 hr 12 min 26 sec) 
Heartbeat CPU 0 instructions: 110000000 cycles: 159470210 heartbeat IPC: 0.713775 cumulative IPC: 0.68472 (Simulation time: 0 hr 13 min 50 sec) 
Heartbeat CPU 0 instructions: 120000002 cycles: 172446763 heartbeat IPC: 0.770621 cumulative IPC: 0.691195 (Simulation time: 0 hr 15 min 9 sec) 
Heartbeat CPU 0 instructions: 130000000 cycles: 184298009 heartbeat IPC: 0.843793 cumulative IPC: 0.701023 (Simulation time: 0 hr 16 min 31 sec) 
Heartbeat CPU 0 instructions: 140000000 cycles: 200022651 heartbeat IPC: 0.635945 cumulative IPC: 0.695899 (Simulation time: 0 hr 18 min 18 sec) 
Heartbeat CPU 0 instructions: 150000000 cycles: 215959545 heartbeat IPC: 0.627475 cumulative IPC: 0.690843 (Simulation time: 0 hr 19 min 58 sec) 
Heartbeat CPU 0 instructions: 160000003 cycles: 231941106 heartbeat IPC: 0.625721 cumulative IPC: 0.686351 (Simulation time: 0 hr 21 min 46 sec) 
Heartbeat CPU 0 instructions: 170000003 cycles: 247553018 heartbeat IPC: 0.640537 cumulative IPC: 0.683458 (Simulation time: 0 hr 23 min 32 sec) 
Heartbeat CPU 0 instructions: 180000000 cycles: 261760041 heartbeat IPC: 0.703877 cumulative IPC: 0.684568 (Simulation time: 0 hr 25 min 6 sec) 
Heartbeat CPU 0 instructions: 190000004 cycles: 274915406 heartbeat IPC: 0.760146 cumulative IPC: 0.688188 (Simulation time: 0 hr 26 min 35 sec) 
Heartbeat CPU 0 instructions: 200000003 cycles: 287018687 heartbeat IPC: 0.826222 cumulative IPC: 0.694014 (Simulation time: 0 hr 28 min 2 sec) 
Heartbeat CPU 0 instructions: 210000002 cycles: 299735328 heartbeat IPC: 0.786371 cumulative IPC: 0.697936 (Simulation time: 0 hr 29 min 37 sec) 
Heartbeat CPU 0 instructions: 220000000 cycles: 318067188 heartbeat IPC: 0.545498 cumulative IPC: 0.689143 (Simulation time: 0 hr 31 min 32 sec) 
Heartbeat CPU 0 instructions: 230000001 cycles: 332357447 heartbeat IPC: 0.699777 cumulative IPC: 0.6896 (Simulation time: 0 hr 33 min 7 sec) 
Heartbeat CPU 0 instructions: 240000003 cycles: 345525016 heartbeat IPC: 0.759442 cumulative IPC: 0.692264 (Simulation time: 0 hr 34 min 36 sec) 
Heartbeat CPU 0 instructions: 250000004 cycles: 357834210 heartbeat IPC: 0.812401 cumulative IPC: 0.6964 (Simulation time: 0 hr 35 min 59 sec) 
Heartbeat CPU 0 instructions: 260000001 cycles: 369215977 heartbeat IPC: 0.878598 cumulative IPC: 0.702021 (Simulation time: 0 hr 37 min 21 sec) 
Heartbeat CPU 0 instructions: 270000001 cycles: 379033414 heartbeat IPC: 1.0186 cumulative IPC: 0.710227 (Simulation time: 0 hr 38 min 44 sec) 
Heartbeat CPU 0 instructions: 280000001 cycles: 390335241 heartbeat IPC: 0.884813 cumulative IPC: 0.715285 (Simulation time: 0 hr 40 min 12 sec) 
Heartbeat CPU 0 instructions: 290000001 cycles: 405373656 heartbeat IPC: 0.664964 cumulative IPC: 0.713417 (Simulation time: 0 hr 41 min 56 sec) 
Heartbeat CPU 0 instructions: 300000000 cycles: 424469422 heartbeat IPC: 0.523676 cumulative IPC: 0.704876 (Simulation time: 0 hr 43 min 51 sec) 
Heartbeat CPU 0 instructions: 310000000 cycles: 438285942 heartbeat IPC: 0.723771 cumulative IPC: 0.705472 (Simulation time: 0 hr 45 min 24 sec) 
Heartbeat CPU 0 instructions: 320000004 cycles: 454704450 heartbeat IPC: 0.609069 cumulative IPC: 0.701989 (Simulation time: 0 hr 47 min 14 sec) 
Heartbeat CPU 0 instructions: 330000001 cycles: 469339672 heartbeat IPC: 0.683283 cumulative IPC: 0.701405 (Simulation time: 0 hr 48 min 51 sec) 
Heartbeat CPU 0 instructions: 340000002 cycles: 482668204 heartbeat IPC: 0.75027 cumulative IPC: 0.702755 (Simulation time: 0 hr 50 min 21 sec) 
Heartbeat CPU 0 instructions: 350000001 cycles: 495067341 heartbeat IPC: 0.806508 cumulative IPC: 0.705355 (Simulation time: 0 hr 51 min 47 sec) 
Heartbeat CPU 0 instructions: 360000000 cycles: 506922392 heartbeat IPC: 0.843522 cumulative IPC: 0.708588 (Simulation time: 0 hr 53 min 13 sec) 
Heartbeat CPU 0 instructions: 370000002 cycles: 518406471 heartbeat IPC: 0.870771 cumulative IPC: 0.712183 (Simulation time: 0 hr 54 min 38 sec) 
Heartbeat CPU 0 instructions: 380000003 cycles: 527620950 heartbeat IPC: 1.08525 cumulative IPC: 0.718702 (Simulation time: 0 hr 55 min 53 sec) 
Heartbeat CPU 0 instructions: 390000001 cycles: 537003771 heartbeat IPC: 1.06578 cumulative IPC: 0.724769 (Simulation time: 0 hr 57 min 13 sec) 
Heartbeat CPU 0 instructions: 400000001 cycles: 547988297 heartbeat IPC: 0.910372 cumulative IPC: 0.728491 (Simulation time: 0 hr 58 min 38 sec) 
Heartbeat CPU 0 instructions: 410000000 cycles: 561433109 heartbeat IPC: 0.743781 cumulative IPC: 0.728858 (Simulation time: 1 hr 0 min 13 sec) 
Heartbeat CPU 0 instructions: 420000000 cycles: 581414680 heartbeat IPC: 0.500461 cumulative IPC: 0.721005 (Simulation time: 1 hr 2 min 9 sec) 
Heartbeat CPU 0 instructions: 430000000 cycles: 596051836 heartbeat IPC: 0.683193 cumulative IPC: 0.720076 (Simulation time: 1 hr 3 min 46 sec) 
Heartbeat CPU 0 instructions: 440000001 cycles: 609413023 heartbeat IPC: 0.748437 cumulative IPC: 0.720698 (Simulation time: 1 hr 5 min 17 sec) 
Heartbeat CPU 0 instructions: 450000002 cycles: 622028117 heartbeat IPC: 0.792701 cumulative IPC: 0.722159 (Simulation time: 1 hr 6 min 45 sec) 
Heartbeat CPU 0 instructions: 460000003 cycles: 633763176 heartbeat IPC: 0.852147 cumulative IPC: 0.724567 (Simulation time: 1 hr 8 min 13 sec) 
Heartbeat CPU 0 instructions: 470000003 cycles: 652105522 heartbeat IPC: 0.545187 cumulative IPC: 0.719519 (Simulation time: 1 hr 10 min 9 sec) 
Heartbeat CPU 0 instructions: 480000004 cycles: 666059966 heartbeat IPC: 0.716618 cumulative IPC: 0.719458 (Simulation time: 1 hr 11 min 42 sec) 
Heartbeat CPU 0 instructions: 490000003 cycles: 679305262 heartbeat IPC: 0.754985 cumulative IPC: 0.720151 (Simulation time: 1 hr 13 min 15 sec) 
Heartbeat CPU 0 instructions: 500000004 cycles: 696387150 heartbeat IPC: 0.585415 cumulative IPC: 0.716845 (Simulation time: 1 hr 15 min 9 sec) 
Heartbeat CPU 0 instructions: 510000000 cycles: 711640694 heartbeat IPC: 0.655585 cumulative IPC: 0.715531 (Simulation time: 1 hr 16 min 51 sec) 
Heartbeat CPU 0 instructions: 520000003 cycles: 725424582 heartbeat IPC: 0.725485 cumulative IPC: 0.71572 (Simulation time: 1 hr 18 min 26 sec) 
Heartbeat CPU 0 instructions: 530000000 cycles: 738181077 heartbeat IPC: 0.783914 cumulative IPC: 0.716899 (Simulation time: 1 hr 19 min 56 sec) 
Heartbeat CPU 0 instructions: 540000004 cycles: 750208224 heartbeat IPC: 0.831453 cumulative IPC: 0.718737 (Simulation time: 1 hr 21 min 21 sec) 
Heartbeat CPU 0 instructions: 550000000 cycles: 761828182 heartbeat IPC: 0.860588 cumulative IPC: 0.720901 (Simulation time: 1 hr 22 min 44 sec) 
Heartbeat CPU 0 instructions: 560000002 cycles: 773228643 heartbeat IPC: 0.877158 cumulative IPC: 0.723206 (Simulation time: 1 hr 24 min 7 sec) 
Heartbeat CPU 0 instructions: 570000000 cycles: 781947833 heartbeat IPC: 1.1469 cumulative IPC: 0.727932 (Simulation time: 1 hr 25 min 22 sec) 
Heartbeat CPU 0 instructions: 580000001 cycles: 790956277 heartbeat IPC: 1.11007 cumulative IPC: 0.732286 (Simulation time: 1 hr 26 min 34 sec) 
Heartbeat CPU 0 instructions: 590000002 cycles: 801200758 heartbeat IPC: 0.976135 cumulative IPC: 0.735405 (Simulation time: 1 hr 27 min 53 sec) 
Heartbeat CPU 0 instructions: 600000001 cycles: 813196266 heartbeat IPC: 0.833645 cumulative IPC: 0.736854 (Simulation time: 1 hr 29 min 16 sec) 
Heartbeat CPU 0 instructions: 610000001 cycles: 828544713 heartbeat IPC: 0.651532 cumulative IPC: 0.735273 (Simulation time: 1 hr 30 min 50 sec) 
Heartbeat CPU 0 instructions: 620000001 cycles: 848628910 heartbeat IPC: 0.497904 cumulative IPC: 0.729654 (Simulation time: 1 hr 32 min 37 sec) 
Heartbeat CPU 0 instructions: 630000003 cycles: 864316339 heartbeat IPC: 0.637453 cumulative IPC: 0.72798 (Simulation time: 1 hr 34 min 15 sec) 
Heartbeat CPU 0 instructions: 640000003 cycles: 880277045 heartbeat IPC: 0.626539 cumulative IPC: 0.72614 (Simulation time: 1 hr 35 min 51 sec) 
Heartbeat CPU 0 instructions: 650000001 cycles: 894355991 heartbeat IPC: 0.71028 cumulative IPC: 0.72589 (Simulation time: 1 hr 37 min 15 sec) 
Heartbeat CPU 0 instructions: 660000000 cycles: 907322578 heartbeat IPC: 0.771213 cumulative IPC: 0.726538 (Simulation time: 1 hr 38 min 31 sec) 
Heartbeat CPU 0 instructions: 670000004 cycles: 919447377 heartbeat IPC: 0.824756 cumulative IPC: 0.727834 (Simulation time: 1 hr 39 min 47 sec) 
Heartbeat CPU 0 instructions: 680000000 cycles: 931175970 heartbeat IPC: 0.852617 cumulative IPC: 0.729406 (Simulation time: 1 hr 40 min 58 sec) 
Heartbeat CPU 0 instructions: 690000001 cycles: 940357623 heartbeat IPC: 1.08913 cumulative IPC: 0.732919 (Simulation time: 1 hr 42 min 6 sec) 
Heartbeat CPU 0 instructions: 700000001 cycles: 951736957 heartbeat IPC: 0.878786 cumulative IPC: 0.734664 (Simulation time: 1 hr 43 min 18 sec) 
Heartbeat CPU 0 instructions: 710000003 cycles: 966800035 heartbeat IPC: 0.663875 cumulative IPC: 0.73356 (Simulation time: 1 hr 44 min 45 sec) 
Heartbeat CPU 0 instructions: 720000003 cycles: 984932448 heartbeat IPC: 0.551499 cumulative IPC: 0.730208 (Simulation time: 1 hr 46 min 15 sec) 
Heartbeat CPU 0 instructions: 730000000 cycles: 1000791518 heartbeat IPC: 0.630554 cumulative IPC: 0.728628 (Simulation time: 1 hr 47 min 42 sec) 
Heartbeat CPU 0 instructions: 740000001 cycles: 1015912993 heartbeat IPC: 0.661311 cumulative IPC: 0.727626 (Simulation time: 1 hr 49 min 2 sec) 
Heartbeat CPU 0 instructions: 750000003 cycles: 1032452786 heartbeat IPC: 0.604603 cumulative IPC: 0.725654 (Simulation time: 1 hr 50 min 20 sec) 
Heartbeat CPU 0 instructions: 760000001 cycles: 1049085645 heartbeat IPC: 0.601219 cumulative IPC: 0.723681 (Simulation time: 1 hr 51 min 42 sec) 
Heartbeat CPU 0 instructions: 770000000 cycles: 1063364681 heartbeat IPC: 0.700327 cumulative IPC: 0.723367 (Simulation time: 1 hr 52 min 50 sec) 
Heartbeat CPU 0 instructions: 780000001 cycles: 1076586041 heartbeat IPC: 0.756352 cumulative IPC: 0.723773 (Simulation time: 1 hr 53 min 58 sec) 
Heartbeat CPU 0 instructions: 790000001 cycles: 1088824061 heartbeat IPC: 0.817126 cumulative IPC: 0.724822 (Simulation time: 1 hr 55 min 2 sec) 
Heartbeat CPU 0 instructions: 800000003 cycles: 1099810013 heartbeat IPC: 0.910254 cumulative IPC: 0.726675 (Simulation time: 1 hr 56 min 7 sec) 
Heartbeat CPU 0 instructions: 810000000 cycles: 1114499626 heartbeat IPC: 0.680753 cumulative IPC: 0.726069 (Simulation time: 1 hr 57 min 28 sec) 
Heartbeat CPU 0 instructions: 820000001 cycles: 1131731841 heartbeat IPC: 0.580308 cumulative IPC: 0.723849 (Simulation time: 1 hr 58 min 57 sec) 
Heartbeat CPU 0 instructions: 830000000 cycles: 1147573871 heartbeat IPC: 0.631232 cumulative IPC: 0.722571 (Simulation time: 2 hr 0 min 19 sec) 
Heartbeat CPU 0 instructions: 840000001 cycles: 1163123280 heartbeat IPC: 0.643111 cumulative IPC: 0.721508 (Simulation time: 2 hr 1 min 40 sec) 
Heartbeat CPU 0 instructions: 850000001 cycles: 1176627465 heartbeat IPC: 0.740511 cumulative IPC: 0.721726 (Simulation time: 2 hr 2 min 58 sec) 
Heartbeat CPU 0 instructions: 860000001 cycles: 1192634047 heartbeat IPC: 0.624743 cumulative IPC: 0.720424 (Simulation time: 2 hr 4 min 30 sec) 
Heartbeat CPU 0 instructions: 870000001 cycles: 1207278977 heartbeat IPC: 0.68283 cumulative IPC: 0.719968 (Simulation time: 2 hr 5 min 50 sec) 
Heartbeat CPU 0 instructions: 880000000 cycles: 1220438374 heartbeat IPC: 0.759913 cumulative IPC: 0.720399 (Simulation time: 2 hr 7 min 6 sec) 
Heartbeat CPU 0 instructions: 890000001 cycles: 1234423369 heartbeat IPC: 0.715052 cumulative IPC: 0.720338 (Simulation time: 2 hr 8 min 35 sec) 
Heartbeat CPU 0 instructions: 900000001 cycles: 1252277110 heartbeat IPC: 0.560107 cumulative IPC: 0.718053 (Simulation time: 2 hr 10 min 19 sec) 
Heartbeat CPU 0 instructions: 910000000 cycles: 1266582079 heartbeat IPC: 0.699058 cumulative IPC: 0.717839 (Simulation time: 2 hr 11 min 47 sec) 
Heartbeat CPU 0 instructions: 920000004 cycles: 1279781190 heartbeat IPC: 0.757627 cumulative IPC: 0.718249 (Simulation time: 2 hr 13 min 9 sec) 
Heartbeat CPU 0 instructions: 930000000 cycles: 1291924839 heartbeat IPC: 0.823475 cumulative IPC: 0.719239 (Simulation time: 2 hr 14 min 32 sec) 
Heartbeat CPU 0 instructions: 940000001 cycles: 1309124048 heartbeat IPC: 0.581422 cumulative IPC: 0.717428 (Simulation time: 2 hr 16 min 19 sec) 
Heartbeat CPU 0 instructions: 950000003 cycles: 1323273023 heartbeat IPC: 0.706765 cumulative IPC: 0.717314 (Simulation time: 2 hr 17 min 46 sec) 
Heartbeat CPU 0 instructions: 960000001 cycles: 1339386365 heartbeat IPC: 0.620604 cumulative IPC: 0.71615 (Simulation time: 2 hr 19 min 27 sec) 
Heartbeat CPU 0 instructions: 970000003 cycles: 1353593273 heartbeat IPC: 0.703883 cumulative IPC: 0.716021 (Simulation time: 2 hr 20 min 48 sec) 
Heartbeat CPU 0 instructions: 980000000 cycles: 1366707129 heartbeat IPC: 0.762552 cumulative IPC: 0.716468 (Simulation time: 2 hr 22 min 7 sec) 
Heartbeat CPU 0 instructions: 990000001 cycles: 1378927520 heartbeat IPC: 0.818304 cumulative IPC: 0.71737 (Simulation time: 2 hr 23 min 24 sec) 
Heartbeat CPU 0 instructions: 1000000003 cycles: 1389585181 heartbeat IPC: 0.938292 cumulative IPC: 0.719065 (Simulation time: 2 hr 24 min 37 sec) 
Finished CPU 0 instructions: 1000000004 cycles: 1390312930 cumulative IPC: 0.719263 (Simulation time: 2 hr 24 min 45 sec) 

ChampSim completed all CPUs

Region of Interest Statistics

CPU 0 cumulative IPC: 0.719263 instructions: 1000000004 cycles: 1390312930
cpu0_DTLB TOTAL     ACCESS:  171956033  HIT:  145089686  MISS:   26866347
cpu0_DTLB LOAD      ACCESS:  138159923  HIT:  111808051  MISS:   26351872
cpu0_DTLB RFO       ACCESS:   33796110  HIT:   33281635  MISS:     514475
cpu0_DTLB PREFETCH  ACCESS:          0  HIT:          0  MISS:          0
cpu0_DTLB WRITEBACK ACCESS:          0  HIT:          0  MISS:          0
cpu0_DTLB TRANSLATION ACCESS:          0  HIT:          0  MISS:          0
cpu0_DTLB PREFETCH  REQUESTED:          0  ISSUED:          0  USEFUL:          0  USELESS:          0
cpu0_DTLB AVERAGE MISS LATENCY: 9.57744 cycles
cpu0_ITLB TOTAL     ACCESS:   49629830  HIT:   49256068  MISS:     373762
cpu0_ITLB LOAD      ACCESS:   49629830  HIT:   49256068  MISS:     373762
cpu0_ITLB RFO       ACCESS:          0  HIT:          0  MISS:          0
cpu0_ITLB PREFETCH  ACCESS:          0  HIT:          0  MISS:          0
cpu0_ITLB WRITEBACK ACCESS:          0  HIT:          0  MISS:          0
cpu0_ITLB TRANSLATION ACCESS:          0  HIT:          0  MISS:          0
cpu0_ITLB PREFETCH  REQUESTED:          0  ISSUED:          0  USEFUL:          0  USELESS:          0
cpu0_ITLB AVERAGE MISS LATENCY: 10.0667 cycles
cpu0_L1I TOTAL     ACCESS:   46018282  HIT:   44273444  MISS:    1744838
cpu0_L1I LOAD      ACCESS:   46018282  HIT:   44273444  MISS:    1744838
cpu0_L1I RFO       ACCESS:          0  HIT:          0  MISS:          0
cpu0_L1I PREFETCH  ACCESS:          0  HIT:          0  MISS:          0
cpu0_L1I WRITEBACK ACCESS:          0  HIT:          0  MISS:          0
cpu0_L1I TRANSLATION ACCESS:          0  HIT:          0  MISS:          0
cpu0_L1I PREFETCH  REQUESTED:          0  ISSUED:          0  USEFUL:          0  USELESS:          0
cpu0_L1I AVERAGE MISS LATENCY: 24.4895 cycles
cpu0_STLB TOTAL     ACCESS:   27240109  HIT:   25690402  MISS:    1549707
cpu0_STLB LOAD      ACCESS:   26725634  HIT:   25219937  MISS:    1505697
cpu0_STLB RFO       ACCESS:     514475  HIT:     470465  MISS:      44010
cpu0_STLB PREFETCH  ACCESS:          0  HIT:          0  MISS:          0
cpu0_STLB WRITEBACK ACCESS:          0  HIT:          0  MISS:          0
cpu0_STLB TRANSLATION ACCESS:          0  HIT:          0  MISS:          0
cpu0_STLB PREFETCH  REQUESTED:          0  ISSUED:          0  USEFUL:          0  USELESS:          0
cpu0_STLB AVERAGE MISS LATENCY: 10.1619 cycles
cpu0_L1D TOTAL     ACCESS:  322659271  HIT:  237113698  MISS:   85545573
cpu0_L1D LOAD      ACCESS:  141583869  HIT:   91436316  MISS:   50147553
cpu0_L1D RFO       ACCESS:   64628326  HIT:   63036603  MISS:    1591723
cpu0_L1D PREFETCH  ACCESS:  114923072  HIT:   81303973  MISS:   33619099
cpu0_L1D WRITEBACK ACCESS:          0  HIT:          0  MISS:          0
cpu0_L1D TRANSLATION ACCESS:    1524004  HIT:    1336806  MISS:     187198
cpu0_L1D PREFETCH  REQUESTED:  150828156  ISSUED:  150524647  USEFUL:   21511023  USELESS:   21017224
cpu0_L1D AVERAGE MISS LATENCY: 31.4428 cycles
cpu0_L2C TOTAL     ACCESS:  101077299  HIT:   51024264  MISS:   50053035
cpu0_L2C LOAD      ACCESS:   43022465  HIT:   16138038  MISS:   26884427
cpu0_L2C RFO       ACCESS:    1549877  HIT:     308102  MISS:    1241775
cpu0_L2C PREFETCH  ACCESS:   53218422  HIT:   31340815  MISS:   21877607
cpu0_L2C WRITEBACK ACCESS:    3099337  HIT:    3098751  MISS:        586
cpu0_L2C TRANSLATION ACCESS:     187198  HIT:     138558  MISS:      48640
cpu0_L2C PREFETCH  REQUESTED:   19672310  ISSUED:   10878566  USEFUL:     215233  USELESS:     348749
cpu0_L2C AVERAGE MISS LATENCY: 36.7655 cycles
LLC TOTAL     ACCESS:   52123682  HIT:   50611930  MISS:    1511752
LLC LOAD      ACCESS:   26884383  HIT:   26695255  MISS:     189128
LLC RFO       ACCESS:    1241774  HIT:     248317  MISS:     993457
LLC PREFETCH  ACCESS:   21885759  HIT:   21558584  MISS:     327175
LLC WRITEBACK ACCESS:    2063126  HIT:    2061221  MISS:       1905
LLC TRANSLATION ACCESS:      48640  HIT:      48553  MISS:         87
LLC PREFETCH  REQUESTED:          0  ISSUED:          0  USEFUL:          0  USELESS:          0
LLC AVERAGE MISS LATENCY: 324.655 cycles

DRAM Statistics
 CHANNEL 0
 RQ ROW_BUFFER_HIT:     540871  ROW_BUFFER_MISS:     968945
 DBUS AVG_CONGESTED_CYCLE:     3.9021
 WQ ROW_BUFFER_HIT:     116656  ROW_BUFFER_MISS:    1103215  FULL:          0


CPU 0 Branch Prediction Accuracy: 97.8209% MPKI: 6.23464 Average ROB Occupancy at Mispredict: 34.8679
Branch type MPKI
BRANCH_DIRECT_JUMP: 0.000231
BRANCH_INDIRECT: 0.340764
BRANCH_CONDITIONAL: 4.54413
BRANCH_DIRECT_CALL: 0.000455
BRANCH_INDIRECT_CALL: 0.263408
BRANCH_RETURN: 1.08565

