
*** ChampSim Multicore Out-of-Order Simulator ***

Warmup Instructions: 1000000
Simulation Instructions: 1000000000
Number of CPUs: 1
Off-chip DRAM Size: 4 GiB Channels: 1 Width: 64-bit Data Rate: 3200 MT/s

VirtualMemory physical capacity: 8588881920 num_ppages: 2096895
VirtualMemory page size: 4096 log2_page_size: 12

CPU 0 runs tracer/pin/traces/spec2k17/627.cam4_s-573B.champsimtrace.xz
Basic BTB sets: 1024 ways: 8 indirect buffer size: 4096 RAS size: 64
cpu0_L1D next line prefetcher
cpu0_L2C IP-based stride prefetcher
WARNING: The extended signature CACHE::prefetch_line(ip, base_addr, pf_addr, fill_this_level, prefetch_metadata) is deprecated.
WARNING: Use CACHE::prefetch_line(pf_addr, fill_this_level, prefetch_metadata) instead.

Warmup complete CPU 0 instructions: 1000002 cycles: 278158 (Simulation time: 0 hr 0 min 3 sec) 

Heartbeat CPU 0 instructions: 10000002 cycles: 13734666 heartbeat IPC: 0.728085 cumulative IPC: 0.668821 (Simulation time: 0 hr 1 min 6 sec) 
Heartbeat CPU 0 instructions: 20000000 cycles: 19153557 heartbeat IPC: 1.8454 cumulative IPC: 1.0066 (Simulation time: 0 hr 1 min 50 sec) 
Heartbeat CPU 0 instructions: 30000003 cycles: 24392156 heartbeat IPC: 1.90891 cumulative IPC: 1.20262 (Simulation time: 0 hr 2 min 33 sec) 
Heartbeat CPU 0 instructions: 40000002 cycles: 29476850 heartbeat IPC: 1.96669 cumulative IPC: 1.33568 (Simulation time: 0 hr 3 min 15 sec) 
Heartbeat CPU 0 instructions: 50000001 cycles: 34878556 heartbeat IPC: 1.85127 cumulative IPC: 1.41617 (Simulation time: 0 hr 3 min 56 sec) 
Heartbeat CPU 0 instructions: 60000002 cycles: 40277306 heartbeat IPC: 1.85228 cumulative IPC: 1.47503 (Simulation time: 0 hr 4 min 36 sec) 
Heartbeat CPU 0 instructions: 70000003 cycles: 45649514 heartbeat IPC: 1.86143 cumulative IPC: 1.52078 (Simulation time: 0 hr 5 min 17 sec) 
Heartbeat CPU 0 instructions: 80000004 cycles: 52655121 heartbeat IPC: 1.42743 cumulative IPC: 1.5083 (Simulation time: 0 hr 6 min 2 sec) 
Heartbeat CPU 0 instructions: 90000004 cycles: 60515069 heartbeat IPC: 1.27227 cumulative IPC: 1.4775 (Simulation time: 0 hr 6 min 48 sec) 
Heartbeat CPU 0 instructions: 100000000 cycles: 73940251 heartbeat IPC: 0.744869 cumulative IPC: 1.34397 (Simulation time: 0 hr 8 min 6 sec) 
Heartbeat CPU 0 instructions: 110000002 cycles: 122886891 heartbeat IPC: 0.204304 cumulative IPC: 0.889007 (Simulation time: 0 hr 13 min 15 sec) 
Heartbeat CPU 0 instructions: 120000004 cycles: 129009689 heartbeat IPC: 1.63324 cumulative IPC: 0.924404 (Simulation time: 0 hr 14 min 12 sec) 
Heartbeat CPU 0 instructions: 130000004 cycles: 134244481 heartbeat IPC: 1.9103 cumulative IPC: 0.962929 (Simulation time: 0 hr 15 min 6 sec) 
Heartbeat CPU 0 instructions: 140000001 cycles: 139433050 heartbeat IPC: 1.92731 cumulative IPC: 0.998887 (Simulation time: 0 hr 15 min 59 sec) 
Heartbeat CPU 0 instructions: 150000004 cycles: 144710840 heartbeat IPC: 1.89473 cumulative IPC: 1.03162 (Simulation time: 0 hr 16 min 47 sec) 
Heartbeat CPU 0 instructions: 160000004 cycles: 150150047 heartbeat IPC: 1.8385 cumulative IPC: 1.06091 (Simulation time: 0 hr 17 min 35 sec) 
Heartbeat CPU 0 instructions: 170000000 cycles: 155630022 heartbeat IPC: 1.82483 cumulative IPC: 1.08785 (Simulation time: 0 hr 18 min 23 sec) 
Heartbeat CPU 0 instructions: 180000003 cycles: 162411497 heartbeat IPC: 1.47461 cumulative IPC: 1.10403 (Simulation time: 0 hr 19 min 15 sec) 
Heartbeat CPU 0 instructions: 190000000 cycles: 170012223 heartbeat IPC: 1.31566 cumulative IPC: 1.11351 (Simulation time: 0 hr 20 min 8 sec) 
Heartbeat CPU 0 instructions: 200000000 cycles: 182061044 heartbeat IPC: 0.829957 cumulative IPC: 1.09471 (Simulation time: 0 hr 21 min 22 sec) 
Heartbeat CPU 0 instructions: 210000004 cycles: 232170628 heartbeat IPC: 0.199563 cumulative IPC: 0.90128 (Simulation time: 0 hr 26 min 58 sec) 
Heartbeat CPU 0 instructions: 220000003 cycles: 238786029 heartbeat IPC: 1.51162 cumulative IPC: 0.918209 (Simulation time: 0 hr 27 min 56 sec) 
Heartbeat CPU 0 instructions: 230000002 cycles: 244035606 heartbeat IPC: 1.90492 cumulative IPC: 0.939458 (Simulation time: 0 hr 28 min 51 sec) 
Heartbeat CPU 0 instructions: 240000001 cycles: 249173968 heartbeat IPC: 1.94615 cumulative IPC: 0.960241 (Simulation time: 0 hr 29 min 44 sec) 
Heartbeat CPU 0 instructions: 250000001 cycles: 254449444 heartbeat IPC: 1.89556 cumulative IPC: 0.979654 (Simulation time: 0 hr 30 min 34 sec) 
Heartbeat CPU 0 instructions: 260000000 cycles: 259809250 heartbeat IPC: 1.86574 cumulative IPC: 0.997954 (Simulation time: 0 hr 31 min 20 sec) 
Heartbeat CPU 0 instructions: 270000002 cycles: 265228322 heartbeat IPC: 1.84533 cumulative IPC: 1.01529 (Simulation time: 0 hr 32 min 8 sec) 
Heartbeat CPU 0 instructions: 280000002 cycles: 270984682 heartbeat IPC: 1.73721 cumulative IPC: 1.03064 (Simulation time: 0 hr 32 min 59 sec) 
Heartbeat CPU 0 instructions: 290000002 cycles: 278627012 heartbeat IPC: 1.3085 cumulative IPC: 1.03827 (Simulation time: 0 hr 33 min 53 sec) 
Heartbeat CPU 0 instructions: 300000002 cycles: 288166987 heartbeat IPC: 1.04822 cumulative IPC: 1.0386 (Simulation time: 0 hr 34 min 51 sec) 
Heartbeat CPU 0 instructions: 310000001 cycles: 340542683 heartbeat IPC: 0.190928 cumulative IPC: 0.908117 (Simulation time: 0 hr 40 min 41 sec) 
Heartbeat CPU 0 instructions: 320000001 cycles: 348480273 heartbeat IPC: 1.25983 cumulative IPC: 0.916135 (Simulation time: 0 hr 41 min 40 sec) 
Heartbeat CPU 0 instructions: 330000003 cycles: 353810009 heartbeat IPC: 1.87627 cumulative IPC: 0.930609 (Simulation time: 0 hr 42 min 36 sec) 
Heartbeat CPU 0 instructions: 340000000 cycles: 358904424 heartbeat IPC: 1.96293 cumulative IPC: 0.945274 (Simulation time: 0 hr 43 min 29 sec) 
Heartbeat CPU 0 instructions: 350000000 cycles: 364064997 heartbeat IPC: 1.93777 cumulative IPC: 0.959353 (Simulation time: 0 hr 44 min 22 sec) 
Heartbeat CPU 0 instructions: 360000004 cycles: 369375870 heartbeat IPC: 1.88293 cumulative IPC: 0.972642 (Simulation time: 0 hr 45 min 10 sec) 
Heartbeat CPU 0 instructions: 370000001 cycles: 374748875 heartbeat IPC: 1.86116 cumulative IPC: 0.985391 (Simulation time: 0 hr 45 min 57 sec) 
Heartbeat CPU 0 instructions: 380000003 cycles: 380093682 heartbeat IPC: 1.87098 cumulative IPC: 0.997853 (Simulation time: 0 hr 46 min 45 sec) 
Heartbeat CPU 0 instructions: 390000001 cycles: 387084372 heartbeat IPC: 1.43047 cumulative IPC: 1.00567 (Simulation time: 0 hr 47 min 38 sec) 
Heartbeat CPU 0 instructions: 400000001 cycles: 394975833 heartbeat IPC: 1.26719 cumulative IPC: 1.0109 (Simulation time: 0 hr 48 min 29 sec) 
Heartbeat CPU 0 instructions: 410000001 cycles: 412982574 heartbeat IPC: 0.555348 cumulative IPC: 0.991024 (Simulation time: 0 hr 50 min 23 sec) 
Heartbeat CPU 0 instructions: 420000000 cycles: 457255704 heartbeat IPC: 0.225871 cumulative IPC: 0.916894 (Simulation time: 0 hr 55 min 17 sec) 
Heartbeat CPU 0 instructions: 430000001 cycles: 463179087 heartbeat IPC: 1.68822 cumulative IPC: 0.926764 (Simulation time: 0 hr 56 min 13 sec) 
Heartbeat CPU 0 instructions: 440000001 cycles: 468466359 heartbeat IPC: 1.89133 cumulative IPC: 0.937657 (Simulation time: 0 hr 57 min 5 sec) 
Heartbeat CPU 0 instructions: 450000003 cycles: 473738322 heartbeat IPC: 1.89683 cumulative IPC: 0.948337 (Simulation time: 0 hr 57 min 58 sec) 
Heartbeat CPU 0 instructions: 460000000 cycles: 478997510 heartbeat IPC: 1.90143 cumulative IPC: 0.958808 (Simulation time: 0 hr 58 min 46 sec) 
Heartbeat CPU 0 instructions: 470000000 cycles: 484388277 heartbeat IPC: 1.85502 cumulative IPC: 0.968788 (Simulation time: 0 hr 59 min 33 sec) 
Heartbeat CPU 0 instructions: 480000002 cycles: 489763825 heartbeat IPC: 1.86028 cumulative IPC: 0.978578 (Simulation time: 1 hr 0 min 20 sec) 
Heartbeat CPU 0 instructions: 490000000 cycles: 496634667 heartbeat IPC: 1.45543 cumulative IPC: 0.985179 (Simulation time: 1 hr 1 min 13 sec) 
Heartbeat CPU 0 instructions: 500000001 cycles: 504479507 heartbeat IPC: 1.27472 cumulative IPC: 0.989684 (Simulation time: 1 hr 2 min 5 sec) 
Heartbeat CPU 0 instructions: 510000000 cycles: 517017349 heartbeat IPC: 0.797585 cumulative IPC: 0.985023 (Simulation time: 1 hr 3 min 28 sec) 
Heartbeat CPU 0 instructions: 520000004 cycles: 566671420 heartbeat IPC: 0.201393 cumulative IPC: 0.916324 (Simulation time: 1 hr 8 min 58 sec) 
Heartbeat CPU 0 instructions: 530000001 cycles: 572633378 heartbeat IPC: 1.6773 cumulative IPC: 0.924251 (Simulation time: 1 hr 9 min 53 sec) 
Heartbeat CPU 0 instructions: 540000002 cycles: 577896693 heartbeat IPC: 1.89994 cumulative IPC: 0.933142 (Simulation time: 1 hr 10 min 47 sec) 
Heartbeat CPU 0 instructions: 550000002 cycles: 583096195 heartbeat IPC: 1.92326 cumulative IPC: 0.941975 (Simulation time: 1 hr 11 min 40 sec) 
Heartbeat CPU 0 instructions: 560000000 cycles: 588357487 heartbeat IPC: 1.90067 cumulative IPC: 0.950552 (Simulation time: 1 hr 12 min 29 sec) 
Heartbeat CPU 0 instructions: 570000000 cycles: 593608200 heartbeat IPC: 1.9045 cumulative IPC: 0.958994 (Simulation time: 1 hr 13 min 15 sec) 
Heartbeat CPU 0 instructions: 580000000 cycles: 598980704 heartbeat IPC: 1.86133 cumulative IPC: 0.967091 (Simulation time: 1 hr 14 min 2 sec) 
Heartbeat CPU 0 instructions: 590000000 cycles: 605788026 heartbeat IPC: 1.46901 cumulative IPC: 0.972734 (Simulation time: 1 hr 14 min 53 sec) 
Heartbeat CPU 0 instructions: 600000001 cycles: 613788053 heartbeat IPC: 1.25 cumulative IPC: 0.976349 (Simulation time: 1 hr 15 min 45 sec) 
Heartbeat CPU 0 instructions: 610000004 cycles: 625947815 heartbeat IPC: 0.822385 cumulative IPC: 0.973357 (Simulation time: 1 hr 17 min 3 sec) 
Heartbeat CPU 0 instructions: 620000002 cycles: 675732827 heartbeat IPC: 0.200864 cumulative IPC: 0.91642 (Simulation time: 1 hr 22 min 23 sec) 
Heartbeat CPU 0 instructions: 630000003 cycles: 681816209 heartbeat IPC: 1.64382 cumulative IPC: 0.922913 (Simulation time: 1 hr 23 min 15 sec) 
Heartbeat CPU 0 instructions: 640000001 cycles: 687098621 heartbeat IPC: 1.89307 cumulative IPC: 0.930374 (Simulation time: 1 hr 24 min 4 sec) 
Heartbeat CPU 0 instructions: 650000000 cycles: 692282275 heartbeat IPC: 1.92914 cumulative IPC: 0.937856 (Simulation time: 1 hr 24 min 50 sec) 
Heartbeat CPU 0 instructions: 660000002 cycles: 697504273 heartbeat IPC: 1.91498 cumulative IPC: 0.945174 (Simulation time: 1 hr 25 min 33 sec) 
Heartbeat CPU 0 instructions: 670000002 cycles: 702859184 heartbeat IPC: 1.86744 cumulative IPC: 0.952203 (Simulation time: 1 hr 26 min 14 sec) 
Heartbeat CPU 0 instructions: 680000003 cycles: 709137137 heartbeat IPC: 1.59288 cumulative IPC: 0.957877 (Simulation time: 1 hr 27 min 0 sec) 
Heartbeat CPU 0 instructions: 690000002 cycles: 716833317 heartbeat IPC: 1.29935 cumulative IPC: 0.961545 (Simulation time: 1 hr 27 min 47 sec) 
Heartbeat CPU 0 instructions: 700000004 cycles: 729213424 heartbeat IPC: 0.807748 cumulative IPC: 0.958933 (Simulation time: 1 hr 28 min 55 sec) 
Heartbeat CPU 0 instructions: 710000001 cycles: 779251792 heartbeat IPC: 0.199847 cumulative IPC: 0.910172 (Simulation time: 1 hr 33 min 42 sec) 
Heartbeat CPU 0 instructions: 720000004 cycles: 785675513 heartbeat IPC: 1.55673 cumulative IPC: 0.91546 (Simulation time: 1 hr 34 min 31 sec) 
Heartbeat CPU 0 instructions: 730000001 cycles: 791081712 heartbeat IPC: 1.84973 cumulative IPC: 0.921847 (Simulation time: 1 hr 35 min 18 sec) 
Heartbeat CPU 0 instructions: 740000002 cycles: 796249221 heartbeat IPC: 1.93517 cumulative IPC: 0.928426 (Simulation time: 1 hr 35 min 59 sec) 
Heartbeat CPU 0 instructions: 750000004 cycles: 801423770 heartbeat IPC: 1.93254 cumulative IPC: 0.934911 (Simulation time: 1 hr 36 min 39 sec) 
Heartbeat CPU 0 instructions: 760000000 cycles: 806654905 heartbeat IPC: 1.91163 cumulative IPC: 0.941247 (Simulation time: 1 hr 37 min 18 sec) 
Heartbeat CPU 0 instructions: 770000004 cycles: 812980616 heartbeat IPC: 1.58085 cumulative IPC: 0.946226 (Simulation time: 1 hr 38 min 1 sec) 
Heartbeat CPU 0 instructions: 780000003 cycles: 820495596 heartbeat IPC: 1.33068 cumulative IPC: 0.949748 (Simulation time: 1 hr 38 min 46 sec) 
Heartbeat CPU 0 instructions: 790000004 cycles: 830896082 heartbeat IPC: 0.961494 cumulative IPC: 0.949895 (Simulation time: 1 hr 39 min 36 sec) 
Heartbeat CPU 0 instructions: 800000000 cycles: 883133479 heartbeat IPC: 0.191434 cumulative IPC: 0.905018 (Simulation time: 1 hr 43 min 47 sec) 
Heartbeat CPU 0 instructions: 810000000 cycles: 889625082 heartbeat IPC: 1.54045 cumulative IPC: 0.909656 (Simulation time: 1 hr 44 min 31 sec) 
Heartbeat CPU 0 instructions: 820000002 cycles: 894934949 heartbeat IPC: 1.88329 cumulative IPC: 0.915435 (Simulation time: 1 hr 45 min 16 sec) 
Heartbeat CPU 0 instructions: 830000002 cycles: 900150593 heartbeat IPC: 1.91731 cumulative IPC: 0.921242 (Simulation time: 1 hr 45 min 58 sec) 
Heartbeat CPU 0 instructions: 840000003 cycles: 905306787 heartbeat IPC: 1.93942 cumulative IPC: 0.927042 (Simulation time: 1 hr 46 min 35 sec) 
Heartbeat CPU 0 instructions: 850000002 cycles: 910517750 heartbeat IPC: 1.91903 cumulative IPC: 0.932721 (Simulation time: 1 hr 47 min 12 sec) 
Heartbeat CPU 0 instructions: 860000003 cycles: 916299093 heartbeat IPC: 1.7297 cumulative IPC: 0.937751 (Simulation time: 1 hr 47 min 51 sec) 
Heartbeat CPU 0 instructions: 870000001 cycles: 924093030 heartbeat IPC: 1.28305 cumulative IPC: 0.940665 (Simulation time: 1 hr 48 min 33 sec) 
Heartbeat CPU 0 instructions: 880000003 cycles: 934544111 heartbeat IPC: 0.956839 cumulative IPC: 0.940846 (Simulation time: 1 hr 49 min 23 sec) 
Heartbeat CPU 0 instructions: 890000000 cycles: 986755777 heartbeat IPC: 0.191528 cumulative IPC: 0.901186 (Simulation time: 1 hr 53 min 37 sec) 
Heartbeat CPU 0 instructions: 900000001 cycles: 993439319 heartbeat IPC: 1.49621 cumulative IPC: 0.90519 (Simulation time: 1 hr 54 min 20 sec) 
Heartbeat CPU 0 instructions: 910000000 cycles: 998702904 heartbeat IPC: 1.89985 cumulative IPC: 0.910434 (Simulation time: 1 hr 55 min 7 sec) 
Heartbeat CPU 0 instructions: 920000002 cycles: 1003892284 heartbeat IPC: 1.92701 cumulative IPC: 0.915691 (Simulation time: 1 hr 55 min 51 sec) 
Heartbeat CPU 0 instructions: 930000000 cycles: 1009193547 heartbeat IPC: 1.88634 cumulative IPC: 0.920791 (Simulation time: 1 hr 56 min 33 sec) 
Heartbeat CPU 0 instructions: 940000000 cycles: 1014546042 heartbeat IPC: 1.86829 cumulative IPC: 0.925791 (Simulation time: 1 hr 57 min 12 sec) 
Heartbeat CPU 0 instructions: 950000001 cycles: 1019955269 heartbeat IPC: 1.84869 cumulative IPC: 0.930687 (Simulation time: 1 hr 57 min 52 sec) 
Heartbeat CPU 0 instructions: 960000001 cycles: 1026686443 heartbeat IPC: 1.48562 cumulative IPC: 0.934326 (Simulation time: 1 hr 58 min 36 sec) 
Heartbeat CPU 0 instructions: 970000000 cycles: 1034414465 heartbeat IPC: 1.29399 cumulative IPC: 0.937014 (Simulation time: 1 hr 59 min 22 sec) 
Heartbeat CPU 0 instructions: 980000003 cycles: 1046471916 heartbeat IPC: 0.829363 cumulative IPC: 0.935773 (Simulation time: 2 hr 0 min 29 sec) 
Heartbeat CPU 0 instructions: 990000002 cycles: 1096690211 heartbeat IPC: 0.199131 cumulative IPC: 0.902033 (Simulation time: 2 hr 5 min 21 sec) 
Heartbeat CPU 0 instructions: 1000000001 cycles: 1102849220 heartbeat IPC: 1.62364 cumulative IPC: 0.906064 (Simulation time: 2 hr 6 min 13 sec) 
Finished CPU 0 instructions: 1000000003 cycles: 1103141971 cumulative IPC: 0.906502 (Simulation time: 2 hr 6 min 19 sec) 

ChampSim completed all CPUs

Region of Interest Statistics

CPU 0 cumulative IPC: 0.906502 instructions: 1000000003 cycles: 1103141971
cpu0_DTLB TOTAL     ACCESS:  160673704  HIT:  160027500  MISS:     646204
cpu0_DTLB LOAD      ACCESS:  107604094  HIT:  107116566  MISS:     487528
cpu0_DTLB RFO       ACCESS:   53069610  HIT:   52910934  MISS:     158676
cpu0_DTLB PREFETCH  ACCESS:          0  HIT:          0  MISS:          0
cpu0_DTLB WRITEBACK ACCESS:          0  HIT:          0  MISS:          0
cpu0_DTLB TRANSLATION ACCESS:          0  HIT:          0  MISS:          0
cpu0_DTLB PREFETCH  REQUESTED:          0  ISSUED:          0  USEFUL:          0  USELESS:          0
cpu0_DTLB AVERAGE MISS LATENCY: 15.6244 cycles
cpu0_ITLB TOTAL     ACCESS:   65773866  HIT:   65761651  MISS:      12215
cpu0_ITLB LOAD      ACCESS:   65773866  HIT:   65761651  MISS:      12215
cpu0_ITLB RFO       ACCESS:          0  HIT:          0  MISS:          0
cpu0_ITLB PREFETCH  ACCESS:          0  HIT:          0  MISS:          0
cpu0_ITLB WRITEBACK ACCESS:          0  HIT:          0  MISS:          0
cpu0_ITLB TRANSLATION ACCESS:          0  HIT:          0  MISS:          0
cpu0_ITLB PREFETCH  REQUESTED:          0  ISSUED:          0  USEFUL:          0  USELESS:          0
cpu0_ITLB AVERAGE MISS LATENCY: 18.1337 cycles
cpu0_L1I TOTAL     ACCESS:   61422136  HIT:   61018144  MISS:     403992
cpu0_L1I LOAD      ACCESS:   61422136  HIT:   61018144  MISS:     403992
cpu0_L1I RFO       ACCESS:          0  HIT:          0  MISS:          0
cpu0_L1I PREFETCH  ACCESS:          0  HIT:          0  MISS:          0
cpu0_L1I WRITEBACK ACCESS:          0  HIT:          0  MISS:          0
cpu0_L1I TRANSLATION ACCESS:          0  HIT:          0  MISS:          0
cpu0_L1I PREFETCH  REQUESTED:          0  ISSUED:          0  USEFUL:          0  USELESS:          0
cpu0_L1I AVERAGE MISS LATENCY: 135.271 cycles
cpu0_STLB TOTAL     ACCESS:     658419  HIT:     559839  MISS:      98580
cpu0_STLB LOAD      ACCESS:     499743  HIT:     479119  MISS:      20624
cpu0_STLB RFO       ACCESS:     158676  HIT:      80720  MISS:      77956
cpu0_STLB PREFETCH  ACCESS:          0  HIT:          0  MISS:          0
cpu0_STLB WRITEBACK ACCESS:          0  HIT:          0  MISS:          0
cpu0_STLB TRANSLATION ACCESS:          0  HIT:          0  MISS:          0
cpu0_STLB PREFETCH  REQUESTED:          0  ISSUED:          0  USEFUL:          0  USELESS:          0
cpu0_STLB AVERAGE MISS LATENCY: 44.0766 cycles
cpu0_L1D TOTAL     ACCESS:  301626157  HIT:  289806339  MISS:   11819818
cpu0_L1D LOAD      ACCESS:  111019611  HIT:  108496105  MISS:    2523506
cpu0_L1D RFO       ACCESS:   82523702  HIT:   76043499  MISS:    6480203
cpu0_L1D PREFETCH  ACCESS:  107986881  HIT:  105175546  MISS:    2811335
cpu0_L1D WRITEBACK ACCESS:          0  HIT:          0  MISS:          0
cpu0_L1D TRANSLATION ACCESS:      95963  HIT:      91189  MISS:       4774
cpu0_L1D PREFETCH  REQUESTED:  111712805  ISSUED:  110314926  USEFUL:    2559431  USELESS:     794854
cpu0_L1D AVERAGE MISS LATENCY: 369.949 cycles
cpu0_L2C TOTAL     ACCESS:   21045015  HIT:   14412473  MISS:    6632542
cpu0_L2C LOAD      ACCESS:    2388763  HIT:    1794505  MISS:     594258
cpu0_L2C RFO       ACCESS:    6474747  HIT:    1295767  MISS:    5178980
cpu0_L2C PREFETCH  ACCESS:    5174786  HIT:    4321220  MISS:     853566
cpu0_L2C WRITEBACK ACCESS:    7001945  HIT:    6997890  MISS:       4055
cpu0_L2C TRANSLATION ACCESS:       4774  HIT:       3091  MISS:       1683
cpu0_L2C PREFETCH  REQUESTED:    2417304  ISSUED:    1897336  USEFUL:      46056  USELESS:      19974
cpu0_L2C AVERAGE MISS LATENCY: 651.186 cycles
LLC TOTAL     ACCESS:   12016451  HIT:    6631087  MISS:    5385364
LLC LOAD      ACCESS:     594245  HIT:     285754  MISS:     308491
LLC RFO       ACCESS:    5178952  HIT:     345626  MISS:    4833326
LLC PREFETCH  ACCESS:     858292  HIT:     615868  MISS:     242424
LLC WRITEBACK ACCESS:    5383279  HIT:    5382861  MISS:        418
LLC TRANSLATION ACCESS:       1683  HIT:        978  MISS:        705
LLC PREFETCH  REQUESTED:          0  ISSUED:          0  USEFUL:          0  USELESS:          0
LLC AVERAGE MISS LATENCY: 770.011 cycles

DRAM Statistics
 CHANNEL 0
 RQ ROW_BUFFER_HIT:    1345788  ROW_BUFFER_MISS:    4038818
 DBUS AVG_CONGESTED_CYCLE:    3.98138
 WQ ROW_BUFFER_HIT:     842056  ROW_BUFFER_MISS:    4053591  FULL:          0


CPU 0 Branch Prediction Accuracy: 94.2635% MPKI: 7.67363 Average ROB Occupancy at Mispredict: 52.3882
Branch type MPKI
BRANCH_DIRECT_JUMP: 0.003432
BRANCH_INDIRECT: 0.001409
BRANCH_CONDITIONAL: 7.65102
BRANCH_DIRECT_CALL: 0.016796
BRANCH_INDIRECT_CALL: 0
BRANCH_RETURN: 0.000971

