
*** ChampSim Multicore Out-of-Order Simulator ***

Warmup Instructions: 0
Simulation Instructions: 1000000000
Number of CPUs: 1
Off-chip DRAM Size: 4 GiB Channels: 1 Width: 64-bit Data Rate: 3200 MT/s

VirtualMemory physical capacity: 8588881920 num_ppages: 2096895
VirtualMemory page size: 4096 log2_page_size: 12

CPU 0 runs tracer/pin/traces/spec2k6/429.mcf-184B.champsimtrace.xz
Basic BTB sets: 1024 ways: 8 indirect buffer size: 4096 RAS size: 64
cpu0_L1D next line prefetcher
cpu0_L2C IP-based stride prefetcher

Warmup complete CPU 0 instructions: 4 cycles: 56 (Simulation time: 0 hr 0 min 0 sec) 

WARNING: The extended signature CACHE::prefetch_line(ip, base_addr, pf_addr, fill_this_level, prefetch_metadata) is deprecated.
WARNING: Use CACHE::prefetch_line(pf_addr, fill_this_level, prefetch_metadata) instead.
Heartbeat CPU 0 instructions: 10000002 cycles: 191117054 heartbeat IPC: 0.052324 cumulative IPC: 0.052324 (Simulation time: 0 hr 5 min 10 sec) 
Heartbeat CPU 0 instructions: 20000000 cycles: 391553002 heartbeat IPC: 0.0498912 cumulative IPC: 0.0510787 (Simulation time: 0 hr 10 min 34 sec) 
Heartbeat CPU 0 instructions: 30000002 cycles: 570715171 heartbeat IPC: 0.0558154 cumulative IPC: 0.0525656 (Simulation time: 0 hr 15 min 27 sec) 
Heartbeat CPU 0 instructions: 40000001 cycles: 766096886 heartbeat IPC: 0.0511819 cumulative IPC: 0.0522127 (Simulation time: 0 hr 20 min 43 sec) 
Heartbeat CPU 0 instructions: 50000003 cycles: 961472899 heartbeat IPC: 0.0511834 cumulative IPC: 0.0520035 (Simulation time: 0 hr 26 min 2 sec) 
Heartbeat CPU 0 instructions: 60000001 cycles: 1136689590 heartbeat IPC: 0.0570722 cumulative IPC: 0.0527849 (Simulation time: 0 hr 30 min 54 sec) 
Heartbeat CPU 0 instructions: 70000000 cycles: 1340145733 heartbeat IPC: 0.0491506 cumulative IPC: 0.0522331 (Simulation time: 0 hr 36 min 19 sec) 
Heartbeat CPU 0 instructions: 80000001 cycles: 1528159903 heartbeat IPC: 0.0531875 cumulative IPC: 0.0523505 (Simulation time: 0 hr 41 min 24 sec) 
Heartbeat CPU 0 instructions: 90000000 cycles: 1701548793 heartbeat IPC: 0.0576738 cumulative IPC: 0.052893 (Simulation time: 0 hr 46 min 4 sec) 
Heartbeat CPU 0 instructions: 100000004 cycles: 1881163985 heartbeat IPC: 0.0556746 cumulative IPC: 0.0531586 (Simulation time: 0 hr 50 min 54 sec) 
Heartbeat CPU 0 instructions: 110000003 cycles: 2062037628 heartbeat IPC: 0.0552872 cumulative IPC: 0.0533453 (Simulation time: 0 hr 55 min 46 sec) 
Heartbeat CPU 0 instructions: 120000001 cycles: 2243323030 heartbeat IPC: 0.0551616 cumulative IPC: 0.0534921 (Simulation time: 1 hr 0 min 36 sec) 
Heartbeat CPU 0 instructions: 130000004 cycles: 2408503143 heartbeat IPC: 0.06054 cumulative IPC: 0.0539754 (Simulation time: 1 hr 5 min 4 sec) 
Heartbeat CPU 0 instructions: 140000002 cycles: 2573379654 heartbeat IPC: 0.0606514 cumulative IPC: 0.0544032 (Simulation time: 1 hr 9 min 35 sec) 
Heartbeat CPU 0 instructions: 150000000 cycles: 2751638009 heartbeat IPC: 0.0560983 cumulative IPC: 0.054513 (Simulation time: 1 hr 14 min 24 sec) 
Heartbeat CPU 0 instructions: 160000000 cycles: 2924355863 heartbeat IPC: 0.0578979 cumulative IPC: 0.0547129 (Simulation time: 1 hr 19 min 6 sec) 
Heartbeat CPU 0 instructions: 170000000 cycles: 3118380910 heartbeat IPC: 0.0515397 cumulative IPC: 0.0545155 (Simulation time: 1 hr 24 min 16 sec) 
Heartbeat CPU 0 instructions: 180000000 cycles: 3296704822 heartbeat IPC: 0.0560777 cumulative IPC: 0.0546 (Simulation time: 1 hr 29 min 6 sec) 
Heartbeat CPU 0 instructions: 190000000 cycles: 3483052448 heartbeat IPC: 0.0536631 cumulative IPC: 0.0545499 (Simulation time: 1 hr 34 min 8 sec) 
Heartbeat CPU 0 instructions: 200000000 cycles: 3674433445 heartbeat IPC: 0.0522518 cumulative IPC: 0.0544302 (Simulation time: 1 hr 39 min 20 sec) 
Heartbeat CPU 0 instructions: 210000001 cycles: 3848922441 heartbeat IPC: 0.0573102 cumulative IPC: 0.0545607 (Simulation time: 1 hr 44 min 6 sec) 
Heartbeat CPU 0 instructions: 220000003 cycles: 4032477354 heartbeat IPC: 0.0544796 cumulative IPC: 0.054557 (Simulation time: 1 hr 49 min 10 sec) 
Heartbeat CPU 0 instructions: 230000000 cycles: 4220180896 heartbeat IPC: 0.0532755 cumulative IPC: 0.0545 (Simulation time: 1 hr 54 min 20 sec) 
Heartbeat CPU 0 instructions: 240000004 cycles: 4413183074 heartbeat IPC: 0.0518129 cumulative IPC: 0.0543825 (Simulation time: 1 hr 59 min 57 sec) 
Heartbeat CPU 0 instructions: 250000000 cycles: 4598537310 heartbeat IPC: 0.0539507 cumulative IPC: 0.0543651 (Simulation time: 2 hr 6 min 43 sec) 
Heartbeat CPU 0 instructions: 260000000 cycles: 4782470144 heartbeat IPC: 0.0543677 cumulative IPC: 0.0543652 (Simulation time: 2 hr 13 min 8 sec) 
Heartbeat CPU 0 instructions: 270000001 cycles: 4971730624 heartbeat IPC: 0.0528372 cumulative IPC: 0.054307 (Simulation time: 2 hr 20 min 28 sec) 
Heartbeat CPU 0 instructions: 280000000 cycles: 5155107357 heartbeat IPC: 0.0545325 cumulative IPC: 0.0543151 (Simulation time: 2 hr 27 min 48 sec) 
Heartbeat CPU 0 instructions: 290000002 cycles: 5339250952 heartbeat IPC: 0.0543055 cumulative IPC: 0.0543147 (Simulation time: 2 hr 35 min 23 sec) 
Heartbeat CPU 0 instructions: 300000000 cycles: 5531523087 heartbeat IPC: 0.0520096 cumulative IPC: 0.0542346 (Simulation time: 2 hr 42 min 59 sec) 
Heartbeat CPU 0 instructions: 310000004 cycles: 5712498113 heartbeat IPC: 0.0552563 cumulative IPC: 0.054267 (Simulation time: 2 hr 50 min 20 sec) 
Heartbeat CPU 0 instructions: 320000002 cycles: 5904535691 heartbeat IPC: 0.0520731 cumulative IPC: 0.0541956 (Simulation time: 2 hr 58 min 37 sec) 
Heartbeat CPU 0 instructions: 330000001 cycles: 6079363341 heartbeat IPC: 0.0571992 cumulative IPC: 0.054282 (Simulation time: 3 hr 5 min 1 sec) 
Heartbeat CPU 0 instructions: 340000001 cycles: 6270907937 heartbeat IPC: 0.0522072 cumulative IPC: 0.0542186 (Simulation time: 3 hr 11 min 47 sec) 
Heartbeat CPU 0 instructions: 350000000 cycles: 6442762626 heartbeat IPC: 0.0581887 cumulative IPC: 0.0543245 (Simulation time: 3 hr 18 min 2 sec) 
Heartbeat CPU 0 instructions: 360000000 cycles: 6580884800 heartbeat IPC: 0.0723997 cumulative IPC: 0.0547039 (Simulation time: 3 hr 23 min 11 sec) 
Heartbeat CPU 0 instructions: 370000003 cycles: 6720599210 heartbeat IPC: 0.0715746 cumulative IPC: 0.0550546 (Simulation time: 3 hr 28 min 40 sec) 
Heartbeat CPU 0 instructions: 380000000 cycles: 6856854275 heartbeat IPC: 0.0733917 cumulative IPC: 0.055419 (Simulation time: 3 hr 34 min 51 sec) 
Heartbeat CPU 0 instructions: 390000000 cycles: 7034582586 heartbeat IPC: 0.0562657 cumulative IPC: 0.0554404 (Simulation time: 3 hr 41 min 44 sec) 
Heartbeat CPU 0 instructions: 400000001 cycles: 7217085982 heartbeat IPC: 0.0547935 cumulative IPC: 0.055424 (Simulation time: 3 hr 48 min 37 sec) 
Heartbeat CPU 0 instructions: 410000003 cycles: 7400841303 heartbeat IPC: 0.0544202 cumulative IPC: 0.0553991 (Simulation time: 3 hr 55 min 17 sec) 
Heartbeat CPU 0 instructions: 420000004 cycles: 7569285179 heartbeat IPC: 0.059367 cumulative IPC: 0.0554874 (Simulation time: 4 hr 0 min 36 sec) 
Heartbeat CPU 0 instructions: 430000001 cycles: 7738539001 heartbeat IPC: 0.0590828 cumulative IPC: 0.055566 (Simulation time: 4 hr 5 min 24 sec) 
Heartbeat CPU 0 instructions: 440000001 cycles: 7924560269 heartbeat IPC: 0.0537573 cumulative IPC: 0.0555236 (Simulation time: 4 hr 10 min 49 sec) 
Heartbeat CPU 0 instructions: 450000000 cycles: 8117701852 heartbeat IPC: 0.0517755 cumulative IPC: 0.0554344 (Simulation time: 4 hr 16 min 12 sec) 
Heartbeat CPU 0 instructions: 460000004 cycles: 8299152357 heartbeat IPC: 0.0551115 cumulative IPC: 0.0554273 (Simulation time: 4 hr 21 min 21 sec) 
Heartbeat CPU 0 instructions: 470000001 cycles: 8499064795 heartbeat IPC: 0.0500219 cumulative IPC: 0.0553002 (Simulation time: 4 hr 26 min 55 sec) 
Heartbeat CPU 0 instructions: 480000000 cycles: 8693142858 heartbeat IPC: 0.0515257 cumulative IPC: 0.0552159 (Simulation time: 4 hr 32 min 23 sec) 
Heartbeat CPU 0 instructions: 490000001 cycles: 8879291922 heartbeat IPC: 0.0537204 cumulative IPC: 0.0551846 (Simulation time: 4 hr 37 min 44 sec) 
Heartbeat CPU 0 instructions: 500000000 cycles: 9068137746 heartbeat IPC: 0.0529532 cumulative IPC: 0.0551381 (Simulation time: 4 hr 43 min 16 sec) 
Heartbeat CPU 0 instructions: 510000001 cycles: 9244491281 heartbeat IPC: 0.0567043 cumulative IPC: 0.055168 (Simulation time: 4 hr 48 min 21 sec) 
Heartbeat CPU 0 instructions: 520000000 cycles: 9439122334 heartbeat IPC: 0.0513793 cumulative IPC: 0.0550899 (Simulation time: 4 hr 53 min 47 sec) 
Heartbeat CPU 0 instructions: 530000000 cycles: 9623215194 heartbeat IPC: 0.0543204 cumulative IPC: 0.0550751 (Simulation time: 4 hr 59 min 6 sec) 
Heartbeat CPU 0 instructions: 540000004 cycles: 9810979160 heartbeat IPC: 0.0532584 cumulative IPC: 0.0550404 (Simulation time: 5 hr 4 min 26 sec) 
Heartbeat CPU 0 instructions: 550000001 cycles: 9973046843 heartbeat IPC: 0.0617026 cumulative IPC: 0.0551486 (Simulation time: 5 hr 8 min 57 sec) 
Heartbeat CPU 0 instructions: 560000000 cycles: 10151687603 heartbeat IPC: 0.0559783 cumulative IPC: 0.0551632 (Simulation time: 5 hr 13 min 54 sec) 
Heartbeat CPU 0 instructions: 570000004 cycles: 10323905253 heartbeat IPC: 0.0580661 cumulative IPC: 0.0552117 (Simulation time: 5 hr 18 min 42 sec) 
Heartbeat CPU 0 instructions: 580000002 cycles: 10489806248 heartbeat IPC: 0.0602769 cumulative IPC: 0.0552918 (Simulation time: 5 hr 23 min 18 sec) 
Heartbeat CPU 0 instructions: 590000004 cycles: 10669154751 heartbeat IPC: 0.0557574 cumulative IPC: 0.0552996 (Simulation time: 5 hr 28 min 10 sec) 
Heartbeat CPU 0 instructions: 600000002 cycles: 10846094817 heartbeat IPC: 0.0565163 cumulative IPC: 0.0553195 (Simulation time: 5 hr 33 min 7 sec) 
Heartbeat CPU 0 instructions: 610000000 cycles: 11034298410 heartbeat IPC: 0.0531339 cumulative IPC: 0.0552822 (Simulation time: 5 hr 38 min 33 sec) 
Heartbeat CPU 0 instructions: 620000002 cycles: 11211657481 heartbeat IPC: 0.0563828 cumulative IPC: 0.0552996 (Simulation time: 5 hr 43 min 31 sec) 
Heartbeat CPU 0 instructions: 630000001 cycles: 11393769112 heartbeat IPC: 0.0549114 cumulative IPC: 0.0552934 (Simulation time: 5 hr 48 min 44 sec) 
Heartbeat CPU 0 instructions: 640000000 cycles: 11583260338 heartbeat IPC: 0.0527729 cumulative IPC: 0.0552521 (Simulation time: 5 hr 53 min 54 sec) 
Heartbeat CPU 0 instructions: 650000001 cycles: 11761208182 heartbeat IPC: 0.0561962 cumulative IPC: 0.0552664 (Simulation time: 5 hr 59 min 6 sec) 
Heartbeat CPU 0 instructions: 660000000 cycles: 11949962874 heartbeat IPC: 0.0529788 cumulative IPC: 0.0552303 (Simulation time: 6 hr 4 min 26 sec) 
Heartbeat CPU 0 instructions: 670000000 cycles: 12130865790 heartbeat IPC: 0.0552783 cumulative IPC: 0.055231 (Simulation time: 6 hr 9 min 31 sec) 
Heartbeat CPU 0 instructions: 680000002 cycles: 12317358035 heartbeat IPC: 0.0536215 cumulative IPC: 0.0552066 (Simulation time: 6 hr 14 min 48 sec) 
Heartbeat CPU 0 instructions: 690000001 cycles: 12500911455 heartbeat IPC: 0.05448 cumulative IPC: 0.055196 (Simulation time: 6 hr 19 min 56 sec) 
Heartbeat CPU 0 instructions: 700000000 cycles: 12688483232 heartbeat IPC: 0.0533129 cumulative IPC: 0.0551681 (Simulation time: 6 hr 25 min 7 sec) 
Heartbeat CPU 0 instructions: 710000000 cycles: 12885071157 heartbeat IPC: 0.0508678 cumulative IPC: 0.0551025 (Simulation time: 6 hr 30 min 32 sec) 
Heartbeat CPU 0 instructions: 720000003 cycles: 13066274349 heartbeat IPC: 0.0551867 cumulative IPC: 0.0551037 (Simulation time: 6 hr 35 min 46 sec) 
Heartbeat CPU 0 instructions: 730000004 cycles: 13251226288 heartbeat IPC: 0.0540681 cumulative IPC: 0.0550892 (Simulation time: 6 hr 41 min 4 sec) 
Heartbeat CPU 0 instructions: 740000000 cycles: 13438421415 heartbeat IPC: 0.0534202 cumulative IPC: 0.055066 (Simulation time: 6 hr 46 min 33 sec) 
Heartbeat CPU 0 instructions: 750000000 cycles: 13635365413 heartbeat IPC: 0.0507759 cumulative IPC: 0.055004 (Simulation time: 6 hr 52 min 17 sec) 
Heartbeat CPU 0 instructions: 760000000 cycles: 13820763551 heartbeat IPC: 0.053938 cumulative IPC: 0.0549897 (Simulation time: 6 hr 57 min 32 sec) 
Heartbeat CPU 0 instructions: 770000001 cycles: 14008780502 heartbeat IPC: 0.0531867 cumulative IPC: 0.0549655 (Simulation time: 7 hr 2 min 47 sec) 
Heartbeat CPU 0 instructions: 780000001 cycles: 14210239985 heartbeat IPC: 0.0496378 cumulative IPC: 0.05489 (Simulation time: 7 hr 8 min 13 sec) 
Heartbeat CPU 0 instructions: 790000001 cycles: 14388089399 heartbeat IPC: 0.0562273 cumulative IPC: 0.0549065 (Simulation time: 7 hr 13 min 13 sec) 
Heartbeat CPU 0 instructions: 800000002 cycles: 14572394083 heartbeat IPC: 0.054258 cumulative IPC: 0.0548983 (Simulation time: 7 hr 18 min 15 sec) 
Heartbeat CPU 0 instructions: 810000001 cycles: 14758883042 heartbeat IPC: 0.0536225 cumulative IPC: 0.0548822 (Simulation time: 7 hr 23 min 19 sec) 
Heartbeat CPU 0 instructions: 820000004 cycles: 14928707253 heartbeat IPC: 0.0588844 cumulative IPC: 0.0549277 (Simulation time: 7 hr 28 min 2 sec) 
Heartbeat CPU 0 instructions: 830000000 cycles: 15101156829 heartbeat IPC: 0.0579879 cumulative IPC: 0.0549627 (Simulation time: 7 hr 32 min 47 sec) 
Heartbeat CPU 0 instructions: 840000001 cycles: 15296655227 heartbeat IPC: 0.0511513 cumulative IPC: 0.054914 (Simulation time: 7 hr 38 min 12 sec) 
Heartbeat CPU 0 instructions: 850000000 cycles: 15482190785 heartbeat IPC: 0.053898 cumulative IPC: 0.0549018 (Simulation time: 7 hr 43 min 24 sec) 
Heartbeat CPU 0 instructions: 860000000 cycles: 15686166461 heartbeat IPC: 0.0490255 cumulative IPC: 0.0548254 (Simulation time: 7 hr 48 min 56 sec) 
Heartbeat CPU 0 instructions: 870000004 cycles: 15875933833 heartbeat IPC: 0.0526961 cumulative IPC: 0.0547999 (Simulation time: 7 hr 54 min 8 sec) 
Heartbeat CPU 0 instructions: 880000000 cycles: 16048462114 heartbeat IPC: 0.0579615 cumulative IPC: 0.0548339 (Simulation time: 7 hr 59 min 9 sec) 
Heartbeat CPU 0 instructions: 890000001 cycles: 16241665554 heartbeat IPC: 0.0517589 cumulative IPC: 0.0547973 (Simulation time: 8 hr 4 min 32 sec) 
Heartbeat CPU 0 instructions: 900000003 cycles: 16424138463 heartbeat IPC: 0.0548027 cumulative IPC: 0.0547974 (Simulation time: 8 hr 9 min 38 sec) 
Heartbeat CPU 0 instructions: 910000002 cycles: 16618870517 heartbeat IPC: 0.0513526 cumulative IPC: 0.054757 (Simulation time: 8 hr 14 min 59 sec) 
Heartbeat CPU 0 instructions: 920000001 cycles: 16811264343 heartbeat IPC: 0.0519767 cumulative IPC: 0.0547252 (Simulation time: 8 hr 20 min 34 sec) 
Heartbeat CPU 0 instructions: 930000000 cycles: 16989955568 heartbeat IPC: 0.0559625 cumulative IPC: 0.0547382 (Simulation time: 8 hr 25 min 39 sec) 
Heartbeat CPU 0 instructions: 940000002 cycles: 17183373064 heartbeat IPC: 0.0517016 cumulative IPC: 0.054704 (Simulation time: 8 hr 31 min 4 sec) 
Heartbeat CPU 0 instructions: 950000004 cycles: 17376531875 heartbeat IPC: 0.0517709 cumulative IPC: 0.0546714 (Simulation time: 8 hr 36 min 28 sec) 
Heartbeat CPU 0 instructions: 960000000 cycles: 17551044826 heartbeat IPC: 0.0573023 cumulative IPC: 0.0546976 (Simulation time: 8 hr 41 min 37 sec) 
Heartbeat CPU 0 instructions: 970000004 cycles: 17747376960 heartbeat IPC: 0.0509341 cumulative IPC: 0.054656 (Simulation time: 8 hr 47 min 11 sec) 
Heartbeat CPU 0 instructions: 980000003 cycles: 17946322287 heartbeat IPC: 0.0502651 cumulative IPC: 0.0546073 (Simulation time: 8 hr 52 min 44 sec) 
Heartbeat CPU 0 instructions: 990000001 cycles: 18126775837 heartbeat IPC: 0.0554159 cumulative IPC: 0.0546153 (Simulation time: 8 hr 57 min 54 sec) 
Heartbeat CPU 0 instructions: 1000000001 cycles: 18308294049 heartbeat IPC: 0.0550909 cumulative IPC: 0.0546201 (Simulation time: 9 hr 2 min 56 sec) 
Finished CPU 0 instructions: 1000000000 cycles: 18308294030 cumulative IPC: 0.05462 (Simulation time: 9 hr 2 min 56 sec) 

ChampSim completed all CPUs

Region of Interest Statistics

CPU 0 cumulative IPC: 0.05462 instructions: 1000000000 cycles: 18308294030
cpu0_DTLB TOTAL     ACCESS:  217953357  HIT:  109990313  MISS:  107963044
cpu0_DTLB LOAD      ACCESS:  197204556  HIT:   91747769  MISS:  105456787
cpu0_DTLB RFO       ACCESS:   20748801  HIT:   18242544  MISS:    2506257
cpu0_DTLB PREFETCH  ACCESS:          0  HIT:          0  MISS:          0
cpu0_DTLB WRITEBACK ACCESS:          0  HIT:          0  MISS:          0
cpu0_DTLB TRANSLATION ACCESS:          0  HIT:          0  MISS:          0
cpu0_DTLB PREFETCH  REQUESTED:          0  ISSUED:          0  USEFUL:          0  USELESS:          0
cpu0_DTLB AVERAGE MISS LATENCY: 11.5374 cycles
cpu0_ITLB TOTAL     ACCESS:  111203603  HIT:  111203601  MISS:          2
cpu0_ITLB LOAD      ACCESS:  111203603  HIT:  111203601  MISS:          2
cpu0_ITLB RFO       ACCESS:          0  HIT:          0  MISS:          0
cpu0_ITLB PREFETCH  ACCESS:          0  HIT:          0  MISS:          0
cpu0_ITLB WRITEBACK ACCESS:          0  HIT:          0  MISS:          0
cpu0_ITLB TRANSLATION ACCESS:          0  HIT:          0  MISS:          0
cpu0_ITLB PREFETCH  REQUESTED:          0  ISSUED:          0  USEFUL:          0  USELESS:          0
cpu0_ITLB AVERAGE MISS LATENCY: 222.5 cycles
cpu0_L1I TOTAL     ACCESS:        527  HIT:        489  MISS:         38
cpu0_L1I LOAD      ACCESS:        527  HIT:        489  MISS:         38
cpu0_L1I RFO       ACCESS:          0  HIT:          0  MISS:          0
cpu0_L1I PREFETCH  ACCESS:          0  HIT:          0  MISS:          0
cpu0_L1I WRITEBACK ACCESS:          0  HIT:          0  MISS:          0
cpu0_L1I TRANSLATION ACCESS:          0  HIT:          0  MISS:          0
cpu0_L1I PREFETCH  REQUESTED:          0  ISSUED:          0  USEFUL:          0  USELESS:          0
cpu0_L1I AVERAGE MISS LATENCY: 351.474 cycles
cpu0_STLB TOTAL     ACCESS:  107963046  HIT:   99886850  MISS:    8076196
cpu0_STLB LOAD      ACCESS:  105456789  HIT:   97431771  MISS:    8025018
cpu0_STLB RFO       ACCESS:    2506257  HIT:    2455079  MISS:      51178
cpu0_STLB PREFETCH  ACCESS:          0  HIT:          0  MISS:          0
cpu0_STLB WRITEBACK ACCESS:          0  HIT:          0  MISS:          0
cpu0_STLB TRANSLATION ACCESS:          0  HIT:          0  MISS:          0
cpu0_STLB PREFETCH  REQUESTED:          0  ISSUED:          0  USEFUL:          0  USELESS:          0
cpu0_STLB AVERAGE MISS LATENCY: 33.804 cycles
cpu0_L1D TOTAL     ACCESS:  415740875  HIT:  172198149  MISS:  243542726
cpu0_L1D LOAD      ACCESS:  216132145  HIT:   86066350  MISS:  130065795
cpu0_L1D RFO       ACCESS:   27538994  HIT:   26102411  MISS:    1436583
cpu0_L1D PREFETCH  ACCESS:  164030221  HIT:   53894514  MISS:  110135707
cpu0_L1D WRITEBACK ACCESS:          0  HIT:          0  MISS:          0
cpu0_L1D TRANSLATION ACCESS:    8039515  HIT:    6134874  MISS:    1904641
cpu0_L1D PREFETCH  REQUESTED:  217022705  ISSUED:  194930034  USEFUL:   18793633  USELESS:   92591945
cpu0_L1D AVERAGE MISS LATENCY: 323.474 cycles
cpu0_L2C TOTAL     ACCESS:  258851534  HIT:   82379947  MISS:  176471587
cpu0_L2C LOAD      ACCESS:  128827065  HIT:   44676052  MISS:   84151013
cpu0_L2C RFO       ACCESS:    1424832  HIT:     357630  MISS:    1067202
cpu0_L2C PREFETCH  ACCESS:  111490387  HIT:   21132017  MISS:   90358370
cpu0_L2C WRITEBACK ACCESS:   15204609  HIT:   15203905  MISS:        704
cpu0_L2C TRANSLATION ACCESS:    1904641  HIT:    1010343  MISS:     894298
cpu0_L2C PREFETCH  REQUESTED:     112175  ISSUED:     111148  USEFUL:      13897  USELESS:      66011
cpu0_L2C AVERAGE MISS LATENCY: 431.851 cycles
LLC TOTAL     ACCESS:  188844874  HIT:   93274030  MISS:   95570844
LLC LOAD      ACCESS:   84149661  HIT:   50171698  MISS:   33977963
LLC RFO       ACCESS:    1067200  HIT:     378279  MISS:     688921
LLC PREFETCH  ACCESS:   90359873  HIT:   29543263  MISS:   60816610
LLC WRITEBACK ACCESS:   12373842  HIT:   12371675  MISS:       2167
LLC TRANSLATION ACCESS:     894298  HIT:     809115  MISS:      85183
LLC PREFETCH  REQUESTED:          0  ISSUED:          0  USEFUL:          0  USELESS:          0
LLC AVERAGE MISS LATENCY: 747.582 cycles

DRAM Statistics
 CHANNEL 0
 RQ ROW_BUFFER_HIT:     208500  ROW_BUFFER_MISS:   95321711
 DBUS AVG_CONGESTED_CYCLE:    3.91753
 WQ ROW_BUFFER_HIT:      95607  ROW_BUFFER_MISS:    9773088  FULL:          0


CPU 0 Branch Prediction Accuracy: 89.1821% MPKI: 26.1271 Average ROB Occupancy at Mispredict: 25.0782
Branch type MPKI
BRANCH_DIRECT_JUMP: 2.1e-05
BRANCH_INDIRECT: 0
BRANCH_CONDITIONAL: 26.1271
BRANCH_DIRECT_CALL: 6e-06
BRANCH_INDIRECT_CALL: 0
BRANCH_RETURN: 7e-06

