
*** ChampSim Multicore Out-of-Order Simulator ***

Warmup Instructions: 1000000
Simulation Instructions: 1000000000
Number of CPUs: 1
Off-chip DRAM Size: 4 GiB Channels: 1 Width: 64-bit Data Rate: 3200 MT/s

VirtualMemory physical capacity: 8588881920 num_ppages: 2096895
VirtualMemory page size: 4096 log2_page_size: 12

CPU 0 runs tracer/pin/traces/spec2k17/625.x264_s-18B.champsimtrace.xz
Basic BTB sets: 1024 ways: 8 indirect buffer size: 4096 RAS size: 64
cpu0_L1D next line prefetcher
cpu0_L2C IP-based stride prefetcher
WARNING: The extended signature CACHE::prefetch_line(ip, base_addr, pf_addr, fill_this_level, prefetch_metadata) is deprecated.
WARNING: Use CACHE::prefetch_line(pf_addr, fill_this_level, prefetch_metadata) instead.

Warmup complete CPU 0 instructions: 1000003 cycles: 253064 (Simulation time: 0 hr 0 min 2 sec) 

Heartbeat CPU 0 instructions: 10000000 cycles: 4050315 heartbeat IPC: 2.46894 cumulative IPC: 2.37013 (Simulation time: 0 hr 0 min 34 sec) 
Heartbeat CPU 0 instructions: 20000000 cycles: 8226892 heartbeat IPC: 2.39431 cumulative IPC: 2.38279 (Simulation time: 0 hr 1 min 7 sec) 
Heartbeat CPU 0 instructions: 30000003 cycles: 12281136 heartbeat IPC: 2.46655 cumulative IPC: 2.41103 (Simulation time: 0 hr 1 min 42 sec) 
Heartbeat CPU 0 instructions: 40000003 cycles: 16303526 heartbeat IPC: 2.48608 cumulative IPC: 2.42984 (Simulation time: 0 hr 2 min 16 sec) 
Heartbeat CPU 0 instructions: 50000004 cycles: 20343391 heartbeat IPC: 2.47533 cumulative IPC: 2.43898 (Simulation time: 0 hr 2 min 52 sec) 
Heartbeat CPU 0 instructions: 60000004 cycles: 24395904 heartbeat IPC: 2.4676 cumulative IPC: 2.44379 (Simulation time: 0 hr 3 min 27 sec) 
Heartbeat CPU 0 instructions: 70000003 cycles: 28438106 heartbeat IPC: 2.4739 cumulative IPC: 2.44811 (Simulation time: 0 hr 4 min 3 sec) 
Heartbeat CPU 0 instructions: 80000003 cycles: 32467266 heartbeat IPC: 2.48191 cumulative IPC: 2.45233 (Simulation time: 0 hr 4 min 39 sec) 
Heartbeat CPU 0 instructions: 90000004 cycles: 36522826 heartbeat IPC: 2.46575 cumulative IPC: 2.45383 (Simulation time: 0 hr 5 min 16 sec) 
Heartbeat CPU 0 instructions: 100000001 cycles: 40522873 heartbeat IPC: 2.49997 cumulative IPC: 2.45842 (Simulation time: 0 hr 5 min 53 sec) 
Heartbeat CPU 0 instructions: 110000004 cycles: 44431939 heartbeat IPC: 2.55816 cumulative IPC: 2.46724 (Simulation time: 0 hr 6 min 29 sec) 
Heartbeat CPU 0 instructions: 120000003 cycles: 48352122 heartbeat IPC: 2.5509 cumulative IPC: 2.47406 (Simulation time: 0 hr 7 min 6 sec) 
Heartbeat CPU 0 instructions: 130000002 cycles: 52266737 heartbeat IPC: 2.55453 cumulative IPC: 2.48012 (Simulation time: 0 hr 7 min 44 sec) 
Heartbeat CPU 0 instructions: 140000003 cycles: 60316982 heartbeat IPC: 1.2422 cumulative IPC: 2.3142 (Simulation time: 0 hr 8 min 25 sec) 
Heartbeat CPU 0 instructions: 150000002 cycles: 65762688 heartbeat IPC: 1.83631 cumulative IPC: 2.27447 (Simulation time: 0 hr 9 min 5 sec) 
Heartbeat CPU 0 instructions: 160000001 cycles: 69603267 heartbeat IPC: 2.60377 cumulative IPC: 2.29271 (Simulation time: 0 hr 9 min 44 sec) 
Heartbeat CPU 0 instructions: 170000004 cycles: 73545368 heartbeat IPC: 2.53672 cumulative IPC: 2.30584 (Simulation time: 0 hr 10 min 23 sec) 
Heartbeat CPU 0 instructions: 180000002 cycles: 77302785 heartbeat IPC: 2.6614 cumulative IPC: 2.32318 (Simulation time: 0 hr 11 min 2 sec) 
Heartbeat CPU 0 instructions: 190000002 cycles: 81118362 heartbeat IPC: 2.62084 cumulative IPC: 2.33722 (Simulation time: 0 hr 11 min 41 sec) 
Heartbeat CPU 0 instructions: 200000000 cycles: 85065186 heartbeat IPC: 2.53368 cumulative IPC: 2.34636 (Simulation time: 0 hr 12 min 22 sec) 
Heartbeat CPU 0 instructions: 210000001 cycles: 88845987 heartbeat IPC: 2.64494 cumulative IPC: 2.3591 (Simulation time: 0 hr 13 min 2 sec) 
Heartbeat CPU 0 instructions: 220000002 cycles: 92680669 heartbeat IPC: 2.60778 cumulative IPC: 2.36942 (Simulation time: 0 hr 13 min 43 sec) 
Heartbeat CPU 0 instructions: 230000000 cycles: 96573818 heartbeat IPC: 2.56861 cumulative IPC: 2.37747 (Simulation time: 0 hr 14 min 24 sec) 
Heartbeat CPU 0 instructions: 240000004 cycles: 100406516 heartbeat IPC: 2.60913 cumulative IPC: 2.38634 (Simulation time: 0 hr 15 min 5 sec) 
Heartbeat CPU 0 instructions: 250000004 cycles: 104328880 heartbeat IPC: 2.54948 cumulative IPC: 2.39249 (Simulation time: 0 hr 15 min 49 sec) 
Heartbeat CPU 0 instructions: 260000001 cycles: 108129014 heartbeat IPC: 2.63149 cumulative IPC: 2.40091 (Simulation time: 0 hr 16 min 31 sec) 
Heartbeat CPU 0 instructions: 270000004 cycles: 111941861 heartbeat IPC: 2.62271 cumulative IPC: 2.40848 (Simulation time: 0 hr 17 min 14 sec) 
Heartbeat CPU 0 instructions: 280000000 cycles: 115885198 heartbeat IPC: 2.53592 cumulative IPC: 2.41282 (Simulation time: 0 hr 17 min 56 sec) 
Heartbeat CPU 0 instructions: 290000001 cycles: 119680666 heartbeat IPC: 2.63472 cumulative IPC: 2.41988 (Simulation time: 0 hr 18 min 38 sec) 
Heartbeat CPU 0 instructions: 300000002 cycles: 123462659 heartbeat IPC: 2.64411 cumulative IPC: 2.42676 (Simulation time: 0 hr 19 min 22 sec) 
Heartbeat CPU 0 instructions: 310000001 cycles: 127377079 heartbeat IPC: 2.55466 cumulative IPC: 2.4307 (Simulation time: 0 hr 20 min 5 sec) 
Heartbeat CPU 0 instructions: 320000001 cycles: 131159874 heartbeat IPC: 2.64355 cumulative IPC: 2.43685 (Simulation time: 0 hr 20 min 49 sec) 
Heartbeat CPU 0 instructions: 330000002 cycles: 134927084 heartbeat IPC: 2.65448 cumulative IPC: 2.44294 (Simulation time: 0 hr 21 min 31 sec) 
Heartbeat CPU 0 instructions: 340000000 cycles: 138706571 heartbeat IPC: 2.64586 cumulative IPC: 2.44848 (Simulation time: 0 hr 22 min 14 sec) 
Heartbeat CPU 0 instructions: 350000000 cycles: 142492104 heartbeat IPC: 2.64164 cumulative IPC: 2.45362 (Simulation time: 0 hr 22 min 57 sec) 
Heartbeat CPU 0 instructions: 360000004 cycles: 146268761 heartbeat IPC: 2.64785 cumulative IPC: 2.45864 (Simulation time: 0 hr 23 min 39 sec) 
Heartbeat CPU 0 instructions: 370000000 cycles: 150048274 heartbeat IPC: 2.64584 cumulative IPC: 2.46336 (Simulation time: 0 hr 24 min 22 sec) 
Heartbeat CPU 0 instructions: 380000002 cycles: 153831101 heartbeat IPC: 2.64353 cumulative IPC: 2.4678 (Simulation time: 0 hr 25 min 5 sec) 
Heartbeat CPU 0 instructions: 390000002 cycles: 157640152 heartbeat IPC: 2.62533 cumulative IPC: 2.47161 (Simulation time: 0 hr 25 min 47 sec) 
Heartbeat CPU 0 instructions: 400000001 cycles: 173700569 heartbeat IPC: 0.622649 cumulative IPC: 2.30041 (Simulation time: 0 hr 27 min 38 sec) 
Heartbeat CPU 0 instructions: 410000004 cycles: 177758513 heartbeat IPC: 2.4643 cumulative IPC: 2.30415 (Simulation time: 0 hr 28 min 32 sec) 
Heartbeat CPU 0 instructions: 420000002 cycles: 182624226 heartbeat IPC: 2.0552 cumulative IPC: 2.29751 (Simulation time: 0 hr 29 min 25 sec) 
Heartbeat CPU 0 instructions: 430000003 cycles: 187250624 heartbeat IPC: 2.16151 cumulative IPC: 2.29415 (Simulation time: 0 hr 30 min 14 sec) 
Heartbeat CPU 0 instructions: 440000001 cycles: 191104526 heartbeat IPC: 2.59477 cumulative IPC: 2.30022 (Simulation time: 0 hr 30 min 57 sec) 
Heartbeat CPU 0 instructions: 450000001 cycles: 194907714 heartbeat IPC: 2.62937 cumulative IPC: 2.30665 (Simulation time: 0 hr 31 min 43 sec) 
Heartbeat CPU 0 instructions: 460000004 cycles: 198786852 heartbeat IPC: 2.57789 cumulative IPC: 2.31195 (Simulation time: 0 hr 32 min 29 sec) 
Heartbeat CPU 0 instructions: 470000003 cycles: 202680182 heartbeat IPC: 2.5685 cumulative IPC: 2.31688 (Simulation time: 0 hr 33 min 15 sec) 
Heartbeat CPU 0 instructions: 480000002 cycles: 206538993 heartbeat IPC: 2.59147 cumulative IPC: 2.32202 (Simulation time: 0 hr 34 min 0 sec) 
Heartbeat CPU 0 instructions: 490000003 cycles: 210476905 heartbeat IPC: 2.53942 cumulative IPC: 2.32609 (Simulation time: 0 hr 34 min 47 sec) 
Heartbeat CPU 0 instructions: 500000003 cycles: 214373485 heartbeat IPC: 2.56635 cumulative IPC: 2.33046 (Simulation time: 0 hr 35 min 34 sec) 
Heartbeat CPU 0 instructions: 510000004 cycles: 218252829 heartbeat IPC: 2.57776 cumulative IPC: 2.33486 (Simulation time: 0 hr 36 min 20 sec) 
Heartbeat CPU 0 instructions: 520000003 cycles: 222070829 heartbeat IPC: 2.61917 cumulative IPC: 2.33976 (Simulation time: 0 hr 37 min 4 sec) 
Heartbeat CPU 0 instructions: 530000001 cycles: 225925800 heartbeat IPC: 2.59405 cumulative IPC: 2.3441 (Simulation time: 0 hr 37 min 50 sec) 
Heartbeat CPU 0 instructions: 540000004 cycles: 229806995 heartbeat IPC: 2.57653 cumulative IPC: 2.34803 (Simulation time: 0 hr 38 min 36 sec) 
Heartbeat CPU 0 instructions: 550000001 cycles: 233562096 heartbeat IPC: 2.66304 cumulative IPC: 2.3531 (Simulation time: 0 hr 39 min 20 sec) 
Heartbeat CPU 0 instructions: 560000000 cycles: 237384271 heartbeat IPC: 2.61631 cumulative IPC: 2.35734 (Simulation time: 0 hr 40 min 5 sec) 
Heartbeat CPU 0 instructions: 570000001 cycles: 253639500 heartbeat IPC: 0.615187 cumulative IPC: 2.24558 (Simulation time: 0 hr 41 min 59 sec) 
Heartbeat CPU 0 instructions: 580000003 cycles: 258325990 heartbeat IPC: 2.13379 cumulative IPC: 2.24355 (Simulation time: 0 hr 43 min 4 sec) 
Heartbeat CPU 0 instructions: 590000004 cycles: 262955244 heartbeat IPC: 2.16018 cumulative IPC: 2.24208 (Simulation time: 0 hr 43 min 51 sec) 
Heartbeat CPU 0 instructions: 600000003 cycles: 267291384 heartbeat IPC: 2.3062 cumulative IPC: 2.24312 (Simulation time: 0 hr 44 min 38 sec) 
Heartbeat CPU 0 instructions: 610000000 cycles: 271674216 heartbeat IPC: 2.28163 cumulative IPC: 2.24375 (Simulation time: 0 hr 45 min 26 sec) 
Heartbeat CPU 0 instructions: 620000003 cycles: 276013194 heartbeat IPC: 2.30469 cumulative IPC: 2.2447 (Simulation time: 0 hr 46 min 15 sec) 
Heartbeat CPU 0 instructions: 630000003 cycles: 280363289 heartbeat IPC: 2.2988 cumulative IPC: 2.24554 (Simulation time: 0 hr 47 min 5 sec) 
Heartbeat CPU 0 instructions: 640000003 cycles: 284699443 heartbeat IPC: 2.30619 cumulative IPC: 2.24647 (Simulation time: 0 hr 47 min 56 sec) 
Heartbeat CPU 0 instructions: 650000002 cycles: 289014701 heartbeat IPC: 2.31736 cumulative IPC: 2.24753 (Simulation time: 0 hr 48 min 45 sec) 
Heartbeat CPU 0 instructions: 660000000 cycles: 293314306 heartbeat IPC: 2.32579 cumulative IPC: 2.24868 (Simulation time: 0 hr 49 min 35 sec) 
Heartbeat CPU 0 instructions: 670000001 cycles: 308651443 heartbeat IPC: 0.652012 cumulative IPC: 2.16927 (Simulation time: 0 hr 51 min 29 sec) 
Heartbeat CPU 0 instructions: 680000002 cycles: 313540873 heartbeat IPC: 2.04523 cumulative IPC: 2.16734 (Simulation time: 0 hr 52 min 29 sec) 
Heartbeat CPU 0 instructions: 690000001 cycles: 318177933 heartbeat IPC: 2.15654 cumulative IPC: 2.16718 (Simulation time: 0 hr 53 min 18 sec) 
Heartbeat CPU 0 instructions: 700000001 cycles: 322522897 heartbeat IPC: 2.30152 cumulative IPC: 2.16899 (Simulation time: 0 hr 54 min 8 sec) 
Heartbeat CPU 0 instructions: 710000001 cycles: 326867844 heartbeat IPC: 2.30152 cumulative IPC: 2.17075 (Simulation time: 0 hr 54 min 57 sec) 
Heartbeat CPU 0 instructions: 720000001 cycles: 331217607 heartbeat IPC: 2.29898 cumulative IPC: 2.17244 (Simulation time: 0 hr 55 min 47 sec) 
Heartbeat CPU 0 instructions: 730000000 cycles: 335577363 heartbeat IPC: 2.29371 cumulative IPC: 2.17401 (Simulation time: 0 hr 56 min 37 sec) 
Heartbeat CPU 0 instructions: 740000003 cycles: 339893791 heartbeat IPC: 2.31673 cumulative IPC: 2.17583 (Simulation time: 0 hr 57 min 25 sec) 
Heartbeat CPU 0 instructions: 750000001 cycles: 344223027 heartbeat IPC: 2.30988 cumulative IPC: 2.17752 (Simulation time: 0 hr 58 min 16 sec) 
Heartbeat CPU 0 instructions: 760000000 cycles: 359793862 heartbeat IPC: 0.642226 cumulative IPC: 2.11103 (Simulation time: 1 hr 0 min 9 sec) 
Heartbeat CPU 0 instructions: 770000004 cycles: 363862738 heartbeat IPC: 2.45768 cumulative IPC: 2.11491 (Simulation time: 1 hr 1 min 6 sec) 
Heartbeat CPU 0 instructions: 780000001 cycles: 368837314 heartbeat IPC: 2.01022 cumulative IPC: 2.11349 (Simulation time: 1 hr 2 min 0 sec) 
Heartbeat CPU 0 instructions: 790000000 cycles: 372566592 heartbeat IPC: 2.68148 cumulative IPC: 2.11918 (Simulation time: 1 hr 2 min 44 sec) 
Heartbeat CPU 0 instructions: 800000002 cycles: 376292883 heartbeat IPC: 2.68363 cumulative IPC: 2.12477 (Simulation time: 1 hr 3 min 27 sec) 
Heartbeat CPU 0 instructions: 810000004 cycles: 380021268 heartbeat IPC: 2.68213 cumulative IPC: 2.13025 (Simulation time: 1 hr 4 min 10 sec) 
Heartbeat CPU 0 instructions: 820000000 cycles: 383756788 heartbeat IPC: 2.677 cumulative IPC: 2.13557 (Simulation time: 1 hr 4 min 53 sec) 
Heartbeat CPU 0 instructions: 830000001 cycles: 387482830 heartbeat IPC: 2.68381 cumulative IPC: 2.14085 (Simulation time: 1 hr 5 min 36 sec) 
Heartbeat CPU 0 instructions: 840000001 cycles: 391227383 heartbeat IPC: 2.67055 cumulative IPC: 2.14592 (Simulation time: 1 hr 6 min 19 sec) 
Heartbeat CPU 0 instructions: 850000000 cycles: 394937374 heartbeat IPC: 2.69542 cumulative IPC: 2.15109 (Simulation time: 1 hr 7 min 2 sec) 
Heartbeat CPU 0 instructions: 860000001 cycles: 398634491 heartbeat IPC: 2.70481 cumulative IPC: 2.15622 (Simulation time: 1 hr 7 min 45 sec) 
Heartbeat CPU 0 instructions: 870000004 cycles: 402313866 heartbeat IPC: 2.71785 cumulative IPC: 2.16136 (Simulation time: 1 hr 8 min 28 sec) 
Heartbeat CPU 0 instructions: 880000001 cycles: 405974818 heartbeat IPC: 2.73153 cumulative IPC: 2.16651 (Simulation time: 1 hr 9 min 10 sec) 
Heartbeat CPU 0 instructions: 890000001 cycles: 409650934 heartbeat IPC: 2.72026 cumulative IPC: 2.17148 (Simulation time: 1 hr 9 min 53 sec) 
Heartbeat CPU 0 instructions: 900000000 cycles: 413336815 heartbeat IPC: 2.71306 cumulative IPC: 2.17631 (Simulation time: 1 hr 10 min 37 sec) 
Heartbeat CPU 0 instructions: 910000000 cycles: 417012941 heartbeat IPC: 2.72025 cumulative IPC: 2.18111 (Simulation time: 1 hr 11 min 19 sec) 
Heartbeat CPU 0 instructions: 920000000 cycles: 420697260 heartbeat IPC: 2.71421 cumulative IPC: 2.18578 (Simulation time: 1 hr 12 min 3 sec) 
Heartbeat CPU 0 instructions: 930000000 cycles: 424394809 heartbeat IPC: 2.70449 cumulative IPC: 2.19031 (Simulation time: 1 hr 12 min 46 sec) 
Heartbeat CPU 0 instructions: 940000000 cycles: 428085696 heartbeat IPC: 2.70938 cumulative IPC: 2.19478 (Simulation time: 1 hr 13 min 29 sec) 
Heartbeat CPU 0 instructions: 950000002 cycles: 431784974 heartbeat IPC: 2.70323 cumulative IPC: 2.19914 (Simulation time: 1 hr 14 min 11 sec) 
Heartbeat CPU 0 instructions: 960000002 cycles: 435483618 heartbeat IPC: 2.70369 cumulative IPC: 2.20343 (Simulation time: 1 hr 14 min 55 sec) 
Heartbeat CPU 0 instructions: 970000000 cycles: 439186826 heartbeat IPC: 2.70036 cumulative IPC: 2.20762 (Simulation time: 1 hr 15 min 39 sec) 
Heartbeat CPU 0 instructions: 980000001 cycles: 442874477 heartbeat IPC: 2.71175 cumulative IPC: 2.21182 (Simulation time: 1 hr 16 min 23 sec) 
Heartbeat CPU 0 instructions: 990000000 cycles: 446588155 heartbeat IPC: 2.69275 cumulative IPC: 2.21582 (Simulation time: 1 hr 17 min 6 sec) 
Heartbeat CPU 0 instructions: 1000000002 cycles: 450306750 heartbeat IPC: 2.68919 cumulative IPC: 2.21974 (Simulation time: 1 hr 17 min 48 sec) 
Finished CPU 0 instructions: 1000000003 cycles: 450420898 cumulative IPC: 2.22015 (Simulation time: 1 hr 17 min 53 sec) 

ChampSim completed all CPUs

Region of Interest Statistics

CPU 0 cumulative IPC: 2.22015 instructions: 1000000003 cycles: 450420898
cpu0_DTLB TOTAL     ACCESS:  128468641  HIT:  127322194  MISS:    1146447
cpu0_DTLB LOAD      ACCESS:   91140340  HIT:   90399611  MISS:     740729
cpu0_DTLB RFO       ACCESS:   37328301  HIT:   36922583  MISS:     405718
cpu0_DTLB PREFETCH  ACCESS:          0  HIT:          0  MISS:          0
cpu0_DTLB WRITEBACK ACCESS:          0  HIT:          0  MISS:          0
cpu0_DTLB TRANSLATION ACCESS:          0  HIT:          0  MISS:          0
cpu0_DTLB PREFETCH  REQUESTED:          0  ISSUED:          0  USEFUL:          0  USELESS:          0
cpu0_DTLB AVERAGE MISS LATENCY: 11.2977 cycles
cpu0_ITLB TOTAL     ACCESS:   44086072  HIT:   44083915  MISS:       2157
cpu0_ITLB LOAD      ACCESS:   44086072  HIT:   44083915  MISS:       2157
cpu0_ITLB RFO       ACCESS:          0  HIT:          0  MISS:          0
cpu0_ITLB PREFETCH  ACCESS:          0  HIT:          0  MISS:          0
cpu0_ITLB WRITEBACK ACCESS:          0  HIT:          0  MISS:          0
cpu0_ITLB TRANSLATION ACCESS:          0  HIT:          0  MISS:          0
cpu0_ITLB PREFETCH  REQUESTED:          0  ISSUED:          0  USEFUL:          0  USELESS:          0
cpu0_ITLB AVERAGE MISS LATENCY: 32.7923 cycles
cpu0_L1I TOTAL     ACCESS:   30121333  HIT:   28137713  MISS:    1983620
cpu0_L1I LOAD      ACCESS:   30121333  HIT:   28137713  MISS:    1983620
cpu0_L1I RFO       ACCESS:          0  HIT:          0  MISS:          0
cpu0_L1I PREFETCH  ACCESS:          0  HIT:          0  MISS:          0
cpu0_L1I WRITEBACK ACCESS:          0  HIT:          0  MISS:          0
cpu0_L1I TRANSLATION ACCESS:          0  HIT:          0  MISS:          0
cpu0_L1I PREFETCH  REQUESTED:          0  ISSUED:          0  USEFUL:          0  USELESS:          0
cpu0_L1I AVERAGE MISS LATENCY: 16.594 cycles
cpu0_STLB TOTAL     ACCESS:    1148604  HIT:    1131111  MISS:      17493
cpu0_STLB LOAD      ACCESS:     742886  HIT:     731737  MISS:      11149
cpu0_STLB RFO       ACCESS:     405718  HIT:     399374  MISS:       6344
cpu0_STLB PREFETCH  ACCESS:          0  HIT:          0  MISS:          0
cpu0_STLB WRITEBACK ACCESS:          0  HIT:          0  MISS:          0
cpu0_STLB TRANSLATION ACCESS:          0  HIT:          0  MISS:          0
cpu0_STLB PREFETCH  REQUESTED:          0  ISSUED:          0  USEFUL:          0  USELESS:          0
cpu0_STLB AVERAGE MISS LATENCY: 150.794 cycles
cpu0_L1D TOTAL     ACCESS:  240563499  HIT:  234844002  MISS:    5719497
cpu0_L1D LOAD      ACCESS:   88510064  HIT:   86261627  MISS:    2248437
cpu0_L1D RFO       ACCESS:   67589326  HIT:   66434276  MISS:    1155050
cpu0_L1D PREFETCH  ACCESS:   84448035  HIT:   82134263  MISS:    2313772
cpu0_L1D WRITEBACK ACCESS:          0  HIT:          0  MISS:          0
cpu0_L1D TRANSLATION ACCESS:      16074  HIT:      13836  MISS:       2238
cpu0_L1D PREFETCH  REQUESTED:   89555944  ISSUED:   87253649  USEFUL:    1589603  USELESS:     833769
cpu0_L1D AVERAGE MISS LATENCY: 135.79 cycles
cpu0_L2C TOTAL     ACCESS:    9894629  HIT:    8302297  MISS:    1592332
cpu0_L2C LOAD      ACCESS:    4123600  HIT:    3694040  MISS:     429560
cpu0_L2C RFO       ACCESS:    1149299  HIT:     762295  MISS:     387004
cpu0_L2C PREFETCH  ACCESS:    3200826  HIT:    2429454  MISS:     771372
cpu0_L2C WRITEBACK ACCESS:    1418666  HIT:    1415002  MISS:       3664
cpu0_L2C TRANSLATION ACCESS:       2238  HIT:       1506  MISS:        732
cpu0_L2C PREFETCH  REQUESTED:     961755  ISSUED:     815703  USEFUL:      30589  USELESS:      13827
cpu0_L2C AVERAGE MISS LATENCY: 498.931 cycles
LLC TOTAL     ACCESS:    2124063  HIT:     884251  MISS:    1239812
LLC LOAD      ACCESS:     429557  HIT:     147911  MISS:     281646
LLC RFO       ACCESS:     386888  HIT:      15361  MISS:     371527
LLC PREFETCH  ACCESS:     779224  HIT:     193549  MISS:     585675
LLC WRITEBACK ACCESS:     527662  HIT:     526799  MISS:        863
LLC TRANSLATION ACCESS:        732  HIT:        631  MISS:        101
LLC PREFETCH  REQUESTED:          0  ISSUED:          0  USEFUL:          0  USELESS:          0
LLC AVERAGE MISS LATENCY: 611.609 cycles

DRAM Statistics
 CHANNEL 0
 RQ ROW_BUFFER_HIT:      56829  ROW_BUFFER_MISS:    1181841
 DBUS AVG_CONGESTED_CYCLE:    3.95279
 WQ ROW_BUFFER_HIT:      30177  ROW_BUFFER_MISS:     468006  FULL:          0


CPU 0 Branch Prediction Accuracy: 92.228% MPKI: 3.12108 Average ROB Occupancy at Mispredict: 80.718
Branch type MPKI
BRANCH_DIRECT_JUMP: 0.000274
BRANCH_INDIRECT: 0.000875
BRANCH_CONDITIONAL: 3.02896
BRANCH_DIRECT_CALL: 0.000472
BRANCH_INDIRECT_CALL: 0.019393
BRANCH_RETURN: 0.0711

