
*** ChampSim Multicore Out-of-Order Simulator ***

Warmup Instructions: 1000000
Simulation Instructions: 1000000000
Number of CPUs: 1
Off-chip DRAM Size: 4 GiB Channels: 1 Width: 64-bit Data Rate: 3200 MT/s

VirtualMemory physical capacity: 8588881920 num_ppages: 2096895
VirtualMemory page size: 4096 log2_page_size: 12

CPU 0 runs tracer/pin/traces/spec2k17/602.gcc_s-734B.champsimtrace.xz
Basic BTB sets: 1024 ways: 8 indirect buffer size: 4096 RAS size: 64
cpu0_L1D next line prefetcher
cpu0_L2C IP-based stride prefetcher
WARNING: The extended signature CACHE::prefetch_line(ip, base_addr, pf_addr, fill_this_level, prefetch_metadata) is deprecated.
WARNING: Use CACHE::prefetch_line(pf_addr, fill_this_level, prefetch_metadata) instead.

Warmup complete CPU 0 instructions: 1000002 cycles: 250071 (Simulation time: 0 hr 0 min 3 sec) 

Heartbeat CPU 0 instructions: 10000000 cycles: 11737360 heartbeat IPC: 0.85198 cumulative IPC: 0.783475 (Simulation time: 0 hr 0 min 54 sec) 
Heartbeat CPU 0 instructions: 20000002 cycles: 26621120 heartbeat IPC: 0.671873 cumulative IPC: 0.720487 (Simulation time: 0 hr 1 min 56 sec) 
Heartbeat CPU 0 instructions: 30000003 cycles: 39227589 heartbeat IPC: 0.793244 cumulative IPC: 0.744019 (Simulation time: 0 hr 2 min 52 sec) 
Heartbeat CPU 0 instructions: 40000000 cycles: 56608980 heartbeat IPC: 0.575328 cumulative IPC: 0.691993 (Simulation time: 0 hr 4 min 2 sec) 
Heartbeat CPU 0 instructions: 50000000 cycles: 73647939 heartbeat IPC: 0.58689 cumulative IPC: 0.667594 (Simulation time: 0 hr 5 min 12 sec) 
Heartbeat CPU 0 instructions: 60000000 cycles: 90558852 heartbeat IPC: 0.591334 cumulative IPC: 0.653314 (Simulation time: 0 hr 6 min 22 sec) 
Heartbeat CPU 0 instructions: 70000003 cycles: 107426314 heartbeat IPC: 0.592858 cumulative IPC: 0.643799 (Simulation time: 0 hr 7 min 31 sec) 
Heartbeat CPU 0 instructions: 80000000 cycles: 124460997 heartbeat IPC: 0.587037 cumulative IPC: 0.636015 (Simulation time: 0 hr 8 min 42 sec) 
Heartbeat CPU 0 instructions: 90000000 cycles: 141675108 heartbeat IPC: 0.580919 cumulative IPC: 0.629309 (Simulation time: 0 hr 9 min 51 sec) 
Heartbeat CPU 0 instructions: 100000002 cycles: 180124154 heartbeat IPC: 0.260085 cumulative IPC: 0.550385 (Simulation time: 0 hr 12 min 54 sec) 
Heartbeat CPU 0 instructions: 110000000 cycles: 197151949 heartbeat IPC: 0.587275 cumulative IPC: 0.553575 (Simulation time: 0 hr 14 min 4 sec) 
Heartbeat CPU 0 instructions: 120000001 cycles: 214089900 heartbeat IPC: 0.59039 cumulative IPC: 0.556491 (Simulation time: 0 hr 15 min 14 sec) 
Heartbeat CPU 0 instructions: 130000001 cycles: 233493505 heartbeat IPC: 0.515368 cumulative IPC: 0.55307 (Simulation time: 0 hr 16 min 38 sec) 
Heartbeat CPU 0 instructions: 140000000 cycles: 248985621 heartbeat IPC: 0.64549 cumulative IPC: 0.558826 (Simulation time: 0 hr 17 min 45 sec) 
Heartbeat CPU 0 instructions: 150000000 cycles: 261601044 heartbeat IPC: 0.792681 cumulative IPC: 0.570115 (Simulation time: 0 hr 18 min 43 sec) 
Heartbeat CPU 0 instructions: 160000002 cycles: 275784517 heartbeat IPC: 0.705046 cumulative IPC: 0.57706 (Simulation time: 0 hr 19 min 43 sec) 
Heartbeat CPU 0 instructions: 170000003 cycles: 292870579 heartbeat IPC: 0.585272 cumulative IPC: 0.57754 (Simulation time: 0 hr 20 min 53 sec) 
Heartbeat CPU 0 instructions: 180000003 cycles: 310209351 heartbeat IPC: 0.576742 cumulative IPC: 0.577495 (Simulation time: 0 hr 22 min 3 sec) 
Heartbeat CPU 0 instructions: 190000000 cycles: 342338111 heartbeat IPC: 0.311248 cumulative IPC: 0.552489 (Simulation time: 0 hr 23 min 46 sec) 
Heartbeat CPU 0 instructions: 200000000 cycles: 364179549 heartbeat IPC: 0.457845 cumulative IPC: 0.546809 (Simulation time: 0 hr 25 min 5 sec) 
Heartbeat CPU 0 instructions: 210000000 cycles: 381074962 heartbeat IPC: 0.591877 cumulative IPC: 0.548809 (Simulation time: 0 hr 26 min 12 sec) 
Heartbeat CPU 0 instructions: 220000001 cycles: 398441714 heartbeat IPC: 0.575813 cumulative IPC: 0.549986 (Simulation time: 0 hr 27 min 20 sec) 
Heartbeat CPU 0 instructions: 230000002 cycles: 415490828 heartbeat IPC: 0.586541 cumulative IPC: 0.551487 (Simulation time: 0 hr 28 min 26 sec) 
Heartbeat CPU 0 instructions: 240000001 cycles: 432510191 heartbeat IPC: 0.587566 cumulative IPC: 0.552908 (Simulation time: 0 hr 29 min 32 sec) 
Heartbeat CPU 0 instructions: 250000000 cycles: 449611254 heartbeat IPC: 0.584759 cumulative IPC: 0.55412 (Simulation time: 0 hr 30 min 39 sec) 
Heartbeat CPU 0 instructions: 260000000 cycles: 466462462 heartbeat IPC: 0.593429 cumulative IPC: 0.555541 (Simulation time: 0 hr 31 min 48 sec) 
Heartbeat CPU 0 instructions: 270000000 cycles: 483524789 heartbeat IPC: 0.586087 cumulative IPC: 0.556619 (Simulation time: 0 hr 33 min 1 sec) 
Heartbeat CPU 0 instructions: 280000001 cycles: 500935029 heartbeat IPC: 0.574375 cumulative IPC: 0.557237 (Simulation time: 0 hr 34 min 12 sec) 
Heartbeat CPU 0 instructions: 290000000 cycles: 518075242 heartbeat IPC: 0.583423 cumulative IPC: 0.558103 (Simulation time: 0 hr 35 min 22 sec) 
Heartbeat CPU 0 instructions: 300000002 cycles: 535567514 heartbeat IPC: 0.571681 cumulative IPC: 0.558547 (Simulation time: 0 hr 36 min 33 sec) 
Heartbeat CPU 0 instructions: 310000003 cycles: 552595935 heartbeat IPC: 0.587254 cumulative IPC: 0.559432 (Simulation time: 0 hr 37 min 42 sec) 
Heartbeat CPU 0 instructions: 320000000 cycles: 569693399 heartbeat IPC: 0.584882 cumulative IPC: 0.560196 (Simulation time: 0 hr 38 min 50 sec) 
Heartbeat CPU 0 instructions: 330000003 cycles: 585861714 heartbeat IPC: 0.618494 cumulative IPC: 0.561806 (Simulation time: 0 hr 39 min 55 sec) 
Heartbeat CPU 0 instructions: 340000004 cycles: 602876768 heartbeat IPC: 0.587715 cumulative IPC: 0.562537 (Simulation time: 0 hr 41 min 5 sec) 
Heartbeat CPU 0 instructions: 350000002 cycles: 619994101 heartbeat IPC: 0.584203 cumulative IPC: 0.563136 (Simulation time: 0 hr 42 min 17 sec) 
Heartbeat CPU 0 instructions: 360000001 cycles: 636731750 heartbeat IPC: 0.597455 cumulative IPC: 0.564038 (Simulation time: 0 hr 43 min 24 sec) 
Heartbeat CPU 0 instructions: 370000001 cycles: 653804030 heartbeat IPC: 0.585745 cumulative IPC: 0.564605 (Simulation time: 0 hr 44 min 34 sec) 
Heartbeat CPU 0 instructions: 380000000 cycles: 671075466 heartbeat IPC: 0.578991 cumulative IPC: 0.564976 (Simulation time: 0 hr 45 min 42 sec) 
Heartbeat CPU 0 instructions: 390000000 cycles: 688589139 heartbeat IPC: 0.570982 cumulative IPC: 0.565128 (Simulation time: 0 hr 46 min 56 sec) 
Heartbeat CPU 0 instructions: 400000003 cycles: 705552108 heartbeat IPC: 0.58952 cumulative IPC: 0.565715 (Simulation time: 0 hr 48 min 5 sec) 
Heartbeat CPU 0 instructions: 410000001 cycles: 722512703 heartbeat IPC: 0.589602 cumulative IPC: 0.566276 (Simulation time: 0 hr 49 min 14 sec) 
Heartbeat CPU 0 instructions: 420000001 cycles: 741748509 heartbeat IPC: 0.519864 cumulative IPC: 0.565072 (Simulation time: 0 hr 50 min 30 sec) 
Heartbeat CPU 0 instructions: 430000002 cycles: 758900050 heartbeat IPC: 0.583038 cumulative IPC: 0.565478 (Simulation time: 0 hr 51 min 38 sec) 
Heartbeat CPU 0 instructions: 440000001 cycles: 776015517 heartbeat IPC: 0.584267 cumulative IPC: 0.565893 (Simulation time: 0 hr 52 min 46 sec) 
Heartbeat CPU 0 instructions: 450000000 cycles: 793388833 heartbeat IPC: 0.575595 cumulative IPC: 0.566105 (Simulation time: 0 hr 53 min 57 sec) 
Heartbeat CPU 0 instructions: 460000000 cycles: 810339500 heartbeat IPC: 0.589947 cumulative IPC: 0.566604 (Simulation time: 0 hr 55 min 5 sec) 
Heartbeat CPU 0 instructions: 470000001 cycles: 827789924 heartbeat IPC: 0.573052 cumulative IPC: 0.56674 (Simulation time: 0 hr 56 min 14 sec) 
Heartbeat CPU 0 instructions: 480000001 cycles: 845549326 heartbeat IPC: 0.563082 cumulative IPC: 0.566663 (Simulation time: 0 hr 57 min 28 sec) 
Heartbeat CPU 0 instructions: 490000000 cycles: 862491423 heartbeat IPC: 0.590246 cumulative IPC: 0.567127 (Simulation time: 0 hr 58 min 38 sec) 
Heartbeat CPU 0 instructions: 500000002 cycles: 879207766 heartbeat IPC: 0.598217 cumulative IPC: 0.567718 (Simulation time: 0 hr 59 min 48 sec) 
Heartbeat CPU 0 instructions: 510000001 cycles: 896158402 heartbeat IPC: 0.589948 cumulative IPC: 0.568138 (Simulation time: 1 hr 0 min 56 sec) 
Heartbeat CPU 0 instructions: 520000002 cycles: 913333843 heartbeat IPC: 0.582227 cumulative IPC: 0.568403 (Simulation time: 1 hr 2 min 5 sec) 
Heartbeat CPU 0 instructions: 530000001 cycles: 929618263 heartbeat IPC: 0.614084 cumulative IPC: 0.569204 (Simulation time: 1 hr 3 min 14 sec) 
Heartbeat CPU 0 instructions: 540000004 cycles: 946488681 heartbeat IPC: 0.592754 cumulative IPC: 0.569624 (Simulation time: 1 hr 4 min 23 sec) 
Heartbeat CPU 0 instructions: 550000000 cycles: 963538937 heartbeat IPC: 0.586501 cumulative IPC: 0.569923 (Simulation time: 1 hr 5 min 33 sec) 
Heartbeat CPU 0 instructions: 560000000 cycles: 982767508 heartbeat IPC: 0.520059 cumulative IPC: 0.568947 (Simulation time: 1 hr 6 min 48 sec) 
Heartbeat CPU 0 instructions: 570000004 cycles: 995317882 heartbeat IPC: 0.796789 cumulative IPC: 0.57182 (Simulation time: 1 hr 7 min 46 sec) 
Heartbeat CPU 0 instructions: 580000000 cycles: 1008656784 heartbeat IPC: 0.749687 cumulative IPC: 0.574173 (Simulation time: 1 hr 8 min 48 sec) 
Heartbeat CPU 0 instructions: 590000000 cycles: 1025785944 heartbeat IPC: 0.5838 cumulative IPC: 0.574334 (Simulation time: 1 hr 9 min 57 sec) 
Heartbeat CPU 0 instructions: 600000001 cycles: 1042817544 heartbeat IPC: 0.587144 cumulative IPC: 0.574543 (Simulation time: 1 hr 11 min 5 sec) 
Heartbeat CPU 0 instructions: 610000003 cycles: 1060042941 heartbeat IPC: 0.580538 cumulative IPC: 0.574641 (Simulation time: 1 hr 12 min 14 sec) 
Heartbeat CPU 0 instructions: 620000000 cycles: 1077009028 heartbeat IPC: 0.589411 cumulative IPC: 0.574873 (Simulation time: 1 hr 13 min 21 sec) 
Heartbeat CPU 0 instructions: 630000004 cycles: 1094005808 heartbeat IPC: 0.588347 cumulative IPC: 0.575083 (Simulation time: 1 hr 14 min 31 sec) 
Heartbeat CPU 0 instructions: 640000003 cycles: 1111426926 heartbeat IPC: 0.574016 cumulative IPC: 0.575066 (Simulation time: 1 hr 15 min 39 sec) 
Heartbeat CPU 0 instructions: 650000002 cycles: 1128340495 heartbeat IPC: 0.591241 cumulative IPC: 0.575309 (Simulation time: 1 hr 16 min 45 sec) 
Heartbeat CPU 0 instructions: 660000003 cycles: 1145405429 heartbeat IPC: 0.585997 cumulative IPC: 0.575468 (Simulation time: 1 hr 17 min 51 sec) 
Heartbeat CPU 0 instructions: 670000003 cycles: 1162757045 heartbeat IPC: 0.576315 cumulative IPC: 0.57548 (Simulation time: 1 hr 18 min 58 sec) 
Heartbeat CPU 0 instructions: 680000000 cycles: 1179873431 heartbeat IPC: 0.584235 cumulative IPC: 0.575607 (Simulation time: 1 hr 20 min 5 sec) 
Heartbeat CPU 0 instructions: 690000002 cycles: 1196931429 heartbeat IPC: 0.586235 cumulative IPC: 0.575759 (Simulation time: 1 hr 21 min 10 sec) 
Heartbeat CPU 0 instructions: 700000001 cycles: 1214355232 heartbeat IPC: 0.573927 cumulative IPC: 0.575733 (Simulation time: 1 hr 22 min 19 sec) 
Heartbeat CPU 0 instructions: 710000001 cycles: 1231384085 heartbeat IPC: 0.587239 cumulative IPC: 0.575892 (Simulation time: 1 hr 23 min 27 sec) 
Heartbeat CPU 0 instructions: 720000000 cycles: 1248520674 heartbeat IPC: 0.583547 cumulative IPC: 0.575997 (Simulation time: 1 hr 24 min 34 sec) 
Heartbeat CPU 0 instructions: 730000004 cycles: 1265766690 heartbeat IPC: 0.579844 cumulative IPC: 0.576049 (Simulation time: 1 hr 25 min 41 sec) 
Heartbeat CPU 0 instructions: 740000004 cycles: 1278267184 heartbeat IPC: 0.799968 cumulative IPC: 0.57824 (Simulation time: 1 hr 26 min 38 sec) 
Heartbeat CPU 0 instructions: 750000001 cycles: 1291124230 heartbeat IPC: 0.777783 cumulative IPC: 0.580227 (Simulation time: 1 hr 27 min 33 sec) 
Heartbeat CPU 0 instructions: 760000002 cycles: 1323104455 heartbeat IPC: 0.312693 cumulative IPC: 0.573759 (Simulation time: 1 hr 29 min 12 sec) 
Heartbeat CPU 0 instructions: 770000000 cycles: 1345745421 heartbeat IPC: 0.441677 cumulative IPC: 0.571537 (Simulation time: 1 hr 30 min 30 sec) 
Heartbeat CPU 0 instructions: 780000000 cycles: 1362577604 heartbeat IPC: 0.5941 cumulative IPC: 0.571815 (Simulation time: 1 hr 31 min 35 sec) 
Heartbeat CPU 0 instructions: 790000004 cycles: 1379902014 heartbeat IPC: 0.57722 cumulative IPC: 0.571883 (Simulation time: 1 hr 32 min 39 sec) 
Heartbeat CPU 0 instructions: 800000001 cycles: 1397084560 heartbeat IPC: 0.581986 cumulative IPC: 0.572008 (Simulation time: 1 hr 33 min 44 sec) 
Heartbeat CPU 0 instructions: 810000000 cycles: 1414105921 heartbeat IPC: 0.587497 cumulative IPC: 0.572194 (Simulation time: 1 hr 34 min 50 sec) 
Heartbeat CPU 0 instructions: 820000000 cycles: 1429936396 heartbeat IPC: 0.631693 cumulative IPC: 0.572853 (Simulation time: 1 hr 35 min 51 sec) 
Heartbeat CPU 0 instructions: 830000002 cycles: 1446350680 heartbeat IPC: 0.609226 cumulative IPC: 0.573266 (Simulation time: 1 hr 36 min 53 sec) 
Heartbeat CPU 0 instructions: 840000002 cycles: 1458849253 heartbeat IPC: 0.800091 cumulative IPC: 0.575209 (Simulation time: 1 hr 37 min 44 sec) 
Heartbeat CPU 0 instructions: 850000004 cycles: 1474769172 heartbeat IPC: 0.628144 cumulative IPC: 0.575781 (Simulation time: 1 hr 38 min 44 sec) 
Heartbeat CPU 0 instructions: 860000004 cycles: 1491679521 heartbeat IPC: 0.591354 cumulative IPC: 0.575958 (Simulation time: 1 hr 39 min 47 sec) 
Heartbeat CPU 0 instructions: 870000000 cycles: 1508711904 heartbeat IPC: 0.587117 cumulative IPC: 0.576084 (Simulation time: 1 hr 40 min 46 sec) 
Heartbeat CPU 0 instructions: 880000003 cycles: 1526030982 heartbeat IPC: 0.577398 cumulative IPC: 0.576098 (Simulation time: 1 hr 41 min 49 sec) 
Heartbeat CPU 0 instructions: 890000003 cycles: 1542822295 heartbeat IPC: 0.595546 cumulative IPC: 0.57631 (Simulation time: 1 hr 42 min 53 sec) 
Heartbeat CPU 0 instructions: 900000000 cycles: 1560028825 heartbeat IPC: 0.581175 cumulative IPC: 0.576364 (Simulation time: 1 hr 43 min 57 sec) 
Heartbeat CPU 0 instructions: 910000000 cycles: 1576391051 heartbeat IPC: 0.611164 cumulative IPC: 0.576725 (Simulation time: 1 hr 44 min 57 sec) 
Heartbeat CPU 0 instructions: 920000003 cycles: 1593186662 heartbeat IPC: 0.595394 cumulative IPC: 0.576922 (Simulation time: 1 hr 45 min 59 sec) 
Heartbeat CPU 0 instructions: 930000000 cycles: 1610482399 heartbeat IPC: 0.578177 cumulative IPC: 0.576935 (Simulation time: 1 hr 47 min 3 sec) 
Heartbeat CPU 0 instructions: 940000003 cycles: 1627078707 heartbeat IPC: 0.602544 cumulative IPC: 0.577197 (Simulation time: 1 hr 48 min 6 sec) 
Heartbeat CPU 0 instructions: 950000001 cycles: 1644056455 heartbeat IPC: 0.589006 cumulative IPC: 0.577319 (Simulation time: 1 hr 49 min 6 sec) 
Heartbeat CPU 0 instructions: 960000003 cycles: 1661388186 heartbeat IPC: 0.576977 cumulative IPC: 0.577315 (Simulation time: 1 hr 50 min 7 sec) 
Heartbeat CPU 0 instructions: 970000002 cycles: 1678364278 heartbeat IPC: 0.589064 cumulative IPC: 0.577434 (Simulation time: 1 hr 51 min 9 sec) 
Heartbeat CPU 0 instructions: 980000000 cycles: 1695198866 heartbeat IPC: 0.594015 cumulative IPC: 0.577599 (Simulation time: 1 hr 52 min 9 sec) 
Heartbeat CPU 0 instructions: 990000000 cycles: 1712489050 heartbeat IPC: 0.578363 cumulative IPC: 0.577606 (Simulation time: 1 hr 53 min 10 sec) 
Heartbeat CPU 0 instructions: 1000000001 cycles: 1729185047 heartbeat IPC: 0.598946 cumulative IPC: 0.577812 (Simulation time: 1 hr 54 min 13 sec) 
Finished CPU 0 instructions: 1000000004 cycles: 1730629783 cumulative IPC: 0.577824 (Simulation time: 1 hr 54 min 19 sec) 

ChampSim completed all CPUs

Region of Interest Statistics

CPU 0 cumulative IPC: 0.577824 instructions: 1000000004 cycles: 1730629783
cpu0_DTLB TOTAL     ACCESS:  183218296  HIT:  182623716  MISS:     594580
cpu0_DTLB LOAD      ACCESS:  145511997  HIT:  144919274  MISS:     592723
cpu0_DTLB RFO       ACCESS:   37706299  HIT:   37704442  MISS:       1857
cpu0_DTLB PREFETCH  ACCESS:          0  HIT:          0  MISS:          0
cpu0_DTLB WRITEBACK ACCESS:          0  HIT:          0  MISS:          0
cpu0_DTLB TRANSLATION ACCESS:          0  HIT:          0  MISS:          0
cpu0_DTLB PREFETCH  REQUESTED:          0  ISSUED:          0  USEFUL:          0  USELESS:          0
cpu0_DTLB AVERAGE MISS LATENCY: 20.3297 cycles
cpu0_ITLB TOTAL     ACCESS:  111754843  HIT:  111754831  MISS:         12
cpu0_ITLB LOAD      ACCESS:  111754843  HIT:  111754831  MISS:         12
cpu0_ITLB RFO       ACCESS:          0  HIT:          0  MISS:          0
cpu0_ITLB PREFETCH  ACCESS:          0  HIT:          0  MISS:          0
cpu0_ITLB WRITEBACK ACCESS:          0  HIT:          0  MISS:          0
cpu0_ITLB TRANSLATION ACCESS:          0  HIT:          0  MISS:          0
cpu0_ITLB PREFETCH  REQUESTED:          0  ISSUED:          0  USEFUL:          0  USELESS:          0
cpu0_ITLB AVERAGE MISS LATENCY: 305.583 cycles
cpu0_L1I TOTAL     ACCESS:     314928  HIT:     314783  MISS:        145
cpu0_L1I LOAD      ACCESS:     314928  HIT:     314783  MISS:        145
cpu0_L1I RFO       ACCESS:          0  HIT:          0  MISS:          0
cpu0_L1I PREFETCH  ACCESS:          0  HIT:          0  MISS:          0
cpu0_L1I WRITEBACK ACCESS:          0  HIT:          0  MISS:          0
cpu0_L1I TRANSLATION ACCESS:          0  HIT:          0  MISS:          0
cpu0_L1I PREFETCH  REQUESTED:          0  ISSUED:          0  USEFUL:          0  USELESS:          0
cpu0_L1I AVERAGE MISS LATENCY: 338.979 cycles
cpu0_STLB TOTAL     ACCESS:     594592  HIT:     365565  MISS:     229027
cpu0_STLB LOAD      ACCESS:     592735  HIT:     364494  MISS:     228241
cpu0_STLB RFO       ACCESS:       1857  HIT:       1071  MISS:        786
cpu0_STLB PREFETCH  ACCESS:          0  HIT:          0  MISS:          0
cpu0_STLB WRITEBACK ACCESS:          0  HIT:          0  MISS:          0
cpu0_STLB TRANSLATION ACCESS:          0  HIT:          0  MISS:          0
cpu0_STLB PREFETCH  REQUESTED:          0  ISSUED:          0  USEFUL:          0  USELESS:          0
cpu0_STLB AVERAGE MISS LATENCY: 29.4246 cycles
cpu0_L1D TOTAL     ACCESS:  326106814  HIT:  307973882  MISS:   18132932
cpu0_L1D LOAD      ACCESS:  129180472  HIT:  122163852  MISS:    7016620
cpu0_L1D RFO       ACCESS:   99636054  HIT:   99624765  MISS:      11289
cpu0_L1D PREFETCH  ACCESS:   97065158  HIT:   86002637  MISS:   11062521
cpu0_L1D WRITEBACK ACCESS:          0  HIT:          0  MISS:          0
cpu0_L1D TRANSLATION ACCESS:     225130  HIT:     182628  MISS:      42502
cpu0_L1D PREFETCH  REQUESTED:  131846563  ISSUED:  131812166  USEFUL:   16217318  USELESS:     477896
cpu0_L1D AVERAGE MISS LATENCY: 56.0076 cycles
cpu0_L2C TOTAL     ACCESS:   19241029  HIT:   10268621  MISS:    8972408
cpu0_L2C LOAD      ACCESS:    1388269  HIT:     980693  MISS:     407576
cpu0_L2C RFO       ACCESS:       7086  HIT:       2974  MISS:       4112
cpu0_L2C PREFETCH  ACCESS:   17639403  HIT:    9090336  MISS:    8549067
cpu0_L2C WRITEBACK ACCESS:     163769  HIT:     163504  MISS:        265
cpu0_L2C TRANSLATION ACCESS:      42502  HIT:      31114  MISS:      11388
cpu0_L2C PREFETCH  REQUESTED:    1137803  ISSUED:     983124  USEFUL:      44599  USELESS:      30224
cpu0_L2C AVERAGE MISS LATENCY: 283.189 cycles
LLC TOTAL     ACCESS:    9060893  HIT:     177962  MISS:    8882931
LLC LOAD      ACCESS:     407568  HIT:      31419  MISS:     376149
LLC RFO       ACCESS:       4112  HIT:        199  MISS:       3913
LLC PREFETCH  ACCESS:    8549100  HIT:      68719  MISS:    8480381
LLC WRITEBACK ACCESS:      88725  HIT:      72165  MISS:      16560
LLC TRANSLATION ACCESS:      11388  HIT:       5460  MISS:       5928
LLC PREFETCH  REQUESTED:          0  ISSUED:          0  USEFUL:          0  USELESS:          0
LLC AVERAGE MISS LATENCY: 258.773 cycles

DRAM Statistics
 CHANNEL 0
 RQ ROW_BUFFER_HIT:    2353677  ROW_BUFFER_MISS:    6512421
 DBUS AVG_CONGESTED_CYCLE:    3.69876
 WQ ROW_BUFFER_HIT:      15995  ROW_BUFFER_MISS:      70678  FULL:          0


CPU 0 Branch Prediction Accuracy: 94.7236% MPKI: 12.5632 Average ROB Occupancy at Mispredict: 55.9496
Branch type MPKI
BRANCH_DIRECT_JUMP: 7.4e-05
BRANCH_INDIRECT: 0
BRANCH_CONDITIONAL: 12.5631
BRANCH_DIRECT_CALL: 3.9e-05
BRANCH_INDIRECT_CALL: 8e-06
BRANCH_RETURN: 3.8e-05

