
*** ChampSim Multicore Out-of-Order Simulator ***

Warmup Instructions: 1000000
Simulation Instructions: 1000000000
Number of CPUs: 1
Off-chip DRAM Size: 4 GiB Channels: 1 Width: 64-bit Data Rate: 3200 MT/s

VirtualMemory physical capacity: 8588881920 num_ppages: 2096895
VirtualMemory page size: 4096 log2_page_size: 12

CPU 0 runs tracer/pin/traces/spec2k17/620.omnetpp_s-874B.champsimtrace.xz
Basic BTB sets: 1024 ways: 8 indirect buffer size: 4096 RAS size: 64
cpu0_L1D next line prefetcher
cpu0_L2C IP-based stride prefetcher
WARNING: The extended signature CACHE::prefetch_line(ip, base_addr, pf_addr, fill_this_level, prefetch_metadata) is deprecated.
WARNING: Use CACHE::prefetch_line(pf_addr, fill_this_level, prefetch_metadata) instead.

Warmup complete CPU 0 instructions: 1000001 cycles: 266179 (Simulation time: 0 hr 0 min 3 sec) 

Heartbeat CPU 0 instructions: 10000003 cycles: 26039873 heartbeat IPC: 0.384027 cumulative IPC: 0.349193 (Simulation time: 0 hr 1 min 20 sec) 
Heartbeat CPU 0 instructions: 20000003 cycles: 53815822 heartbeat IPC: 0.360024 cumulative IPC: 0.354811 (Simulation time: 0 hr 2 min 46 sec) 
Heartbeat CPU 0 instructions: 30000002 cycles: 81413880 heartbeat IPC: 0.362344 cumulative IPC: 0.357373 (Simulation time: 0 hr 4 min 13 sec) 
Heartbeat CPU 0 instructions: 40000004 cycles: 109954979 heartbeat IPC: 0.350372 cumulative IPC: 0.355551 (Simulation time: 0 hr 5 min 43 sec) 
Heartbeat CPU 0 instructions: 50000001 cycles: 138530274 heartbeat IPC: 0.349953 cumulative IPC: 0.354394 (Simulation time: 0 hr 7 min 23 sec) 
Heartbeat CPU 0 instructions: 60000004 cycles: 167244950 heartbeat IPC: 0.348254 cumulative IPC: 0.353338 (Simulation time: 0 hr 8 min 59 sec) 
Heartbeat CPU 0 instructions: 70000003 cycles: 195017099 heartbeat IPC: 0.360073 cumulative IPC: 0.354299 (Simulation time: 0 hr 10 min 36 sec) 
Heartbeat CPU 0 instructions: 80000003 cycles: 223002254 heartbeat IPC: 0.357332 cumulative IPC: 0.35468 (Simulation time: 0 hr 12 min 12 sec) 
Heartbeat CPU 0 instructions: 90000004 cycles: 249908451 heartbeat IPC: 0.371662 cumulative IPC: 0.35651 (Simulation time: 0 hr 13 min 51 sec) 
Heartbeat CPU 0 instructions: 100000001 cycles: 278252262 heartbeat IPC: 0.352811 cumulative IPC: 0.356133 (Simulation time: 0 hr 15 min 40 sec) 
Heartbeat CPU 0 instructions: 110000000 cycles: 306043578 heartbeat IPC: 0.359825 cumulative IPC: 0.356468 (Simulation time: 0 hr 17 min 36 sec) 
Heartbeat CPU 0 instructions: 120000001 cycles: 333343806 heartbeat IPC: 0.366297 cumulative IPC: 0.357274 (Simulation time: 0 hr 19 min 33 sec) 
Heartbeat CPU 0 instructions: 130000002 cycles: 360817300 heartbeat IPC: 0.363987 cumulative IPC: 0.357786 (Simulation time: 0 hr 21 min 36 sec) 
Heartbeat CPU 0 instructions: 140000002 cycles: 387537616 heartbeat IPC: 0.374247 cumulative IPC: 0.358921 (Simulation time: 0 hr 23 min 43 sec) 
Heartbeat CPU 0 instructions: 150000004 cycles: 414565054 heartbeat IPC: 0.369994 cumulative IPC: 0.359644 (Simulation time: 0 hr 25 min 53 sec) 
Heartbeat CPU 0 instructions: 160000000 cycles: 442109620 heartbeat IPC: 0.363048 cumulative IPC: 0.359856 (Simulation time: 0 hr 28 min 8 sec) 
Heartbeat CPU 0 instructions: 170000003 cycles: 468826523 heartbeat IPC: 0.374295 cumulative IPC: 0.360679 (Simulation time: 0 hr 30 min 18 sec) 
Heartbeat CPU 0 instructions: 180000000 cycles: 495826190 heartbeat IPC: 0.370375 cumulative IPC: 0.361208 (Simulation time: 0 hr 32 min 29 sec) 
Heartbeat CPU 0 instructions: 190000004 cycles: 522726091 heartbeat IPC: 0.371749 cumulative IPC: 0.36175 (Simulation time: 0 hr 34 min 39 sec) 
Heartbeat CPU 0 instructions: 200000004 cycles: 549409733 heartbeat IPC: 0.374761 cumulative IPC: 0.362382 (Simulation time: 0 hr 36 min 45 sec) 
Heartbeat CPU 0 instructions: 210000000 cycles: 576277453 heartbeat IPC: 0.372194 cumulative IPC: 0.36284 (Simulation time: 0 hr 38 min 55 sec) 
Heartbeat CPU 0 instructions: 220000000 cycles: 603405108 heartbeat IPC: 0.368628 cumulative IPC: 0.3631 (Simulation time: 0 hr 41 min 4 sec) 
Heartbeat CPU 0 instructions: 230000004 cycles: 629723252 heartbeat IPC: 0.379966 cumulative IPC: 0.363806 (Simulation time: 0 hr 43 min 12 sec) 
Heartbeat CPU 0 instructions: 240000002 cycles: 656720662 heartbeat IPC: 0.370406 cumulative IPC: 0.364077 (Simulation time: 0 hr 45 min 22 sec) 
Heartbeat CPU 0 instructions: 250000001 cycles: 683900896 heartbeat IPC: 0.367914 cumulative IPC: 0.36423 (Simulation time: 0 hr 47 min 36 sec) 
Heartbeat CPU 0 instructions: 260000001 cycles: 710980587 heartbeat IPC: 0.36928 cumulative IPC: 0.364422 (Simulation time: 0 hr 49 min 47 sec) 
Heartbeat CPU 0 instructions: 270000002 cycles: 738669342 heartbeat IPC: 0.361157 cumulative IPC: 0.3643 (Simulation time: 0 hr 52 min 2 sec) 
Heartbeat CPU 0 instructions: 280000002 cycles: 766700126 heartbeat IPC: 0.356751 cumulative IPC: 0.364024 (Simulation time: 0 hr 54 min 17 sec) 
Heartbeat CPU 0 instructions: 290000001 cycles: 794523049 heartbeat IPC: 0.359416 cumulative IPC: 0.363862 (Simulation time: 0 hr 56 min 26 sec) 
Heartbeat CPU 0 instructions: 300000003 cycles: 821273044 heartbeat IPC: 0.373832 cumulative IPC: 0.364187 (Simulation time: 0 hr 58 min 33 sec) 
Heartbeat CPU 0 instructions: 310000001 cycles: 847750851 heartbeat IPC: 0.377675 cumulative IPC: 0.364608 (Simulation time: 1 hr 0 min 42 sec) 
Heartbeat CPU 0 instructions: 320000003 cycles: 874759953 heartbeat IPC: 0.370246 cumulative IPC: 0.364782 (Simulation time: 1 hr 2 min 53 sec) 
Heartbeat CPU 0 instructions: 330000003 cycles: 902298717 heartbeat IPC: 0.363124 cumulative IPC: 0.364732 (Simulation time: 1 hr 5 min 5 sec) 
Heartbeat CPU 0 instructions: 340000000 cycles: 929988378 heartbeat IPC: 0.361146 cumulative IPC: 0.364625 (Simulation time: 1 hr 7 min 20 sec) 
Heartbeat CPU 0 instructions: 350000002 cycles: 958789007 heartbeat IPC: 0.347215 cumulative IPC: 0.364102 (Simulation time: 1 hr 9 min 42 sec) 
Heartbeat CPU 0 instructions: 360000004 cycles: 986733180 heartbeat IPC: 0.357856 cumulative IPC: 0.363925 (Simulation time: 1 hr 11 min 59 sec) 
Heartbeat CPU 0 instructions: 370000001 cycles: 1014587120 heartbeat IPC: 0.359016 cumulative IPC: 0.36379 (Simulation time: 1 hr 14 min 11 sec) 
Heartbeat CPU 0 instructions: 380000003 cycles: 1041544849 heartbeat IPC: 0.370951 cumulative IPC: 0.363976 (Simulation time: 1 hr 16 min 21 sec) 
Heartbeat CPU 0 instructions: 390000003 cycles: 1067934435 heartbeat IPC: 0.378937 cumulative IPC: 0.364345 (Simulation time: 1 hr 18 min 32 sec) 
Heartbeat CPU 0 instructions: 400000000 cycles: 1096220406 heartbeat IPC: 0.353532 cumulative IPC: 0.364066 (Simulation time: 1 hr 20 min 50 sec) 
Heartbeat CPU 0 instructions: 410000000 cycles: 1124050895 heartbeat IPC: 0.359318 cumulative IPC: 0.363949 (Simulation time: 1 hr 23 min 6 sec) 
Heartbeat CPU 0 instructions: 420000003 cycles: 1151286726 heartbeat IPC: 0.367164 cumulative IPC: 0.364025 (Simulation time: 1 hr 25 min 19 sec) 
Heartbeat CPU 0 instructions: 430000001 cycles: 1178287384 heartbeat IPC: 0.370361 cumulative IPC: 0.36417 (Simulation time: 1 hr 27 min 30 sec) 
Heartbeat CPU 0 instructions: 440000004 cycles: 1204860244 heartbeat IPC: 0.376324 cumulative IPC: 0.364438 (Simulation time: 1 hr 29 min 37 sec) 
Heartbeat CPU 0 instructions: 450000004 cycles: 1231862769 heartbeat IPC: 0.370336 cumulative IPC: 0.364567 (Simulation time: 1 hr 31 min 48 sec) 
Heartbeat CPU 0 instructions: 460000004 cycles: 1258330817 heartbeat IPC: 0.377814 cumulative IPC: 0.364846 (Simulation time: 1 hr 33 min 56 sec) 
Heartbeat CPU 0 instructions: 470000001 cycles: 1285651608 heartbeat IPC: 0.366022 cumulative IPC: 0.364871 (Simulation time: 1 hr 36 min 5 sec) 
Heartbeat CPU 0 instructions: 480000003 cycles: 1313076185 heartbeat IPC: 0.364637 cumulative IPC: 0.364866 (Simulation time: 1 hr 38 min 10 sec) 
Heartbeat CPU 0 instructions: 490000004 cycles: 1339441716 heartbeat IPC: 0.379283 cumulative IPC: 0.36515 (Simulation time: 1 hr 40 min 10 sec) 
Heartbeat CPU 0 instructions: 500000000 cycles: 1365776213 heartbeat IPC: 0.37973 cumulative IPC: 0.365431 (Simulation time: 1 hr 42 min 7 sec) 
Heartbeat CPU 0 instructions: 510000003 cycles: 1392450153 heartbeat IPC: 0.374898 cumulative IPC: 0.365613 (Simulation time: 1 hr 44 min 3 sec) 
Heartbeat CPU 0 instructions: 520000002 cycles: 1419023540 heartbeat IPC: 0.376316 cumulative IPC: 0.365813 (Simulation time: 1 hr 45 min 58 sec) 
Heartbeat CPU 0 instructions: 530000003 cycles: 1446208505 heartbeat IPC: 0.36785 cumulative IPC: 0.365851 (Simulation time: 1 hr 47 min 55 sec) 
Heartbeat CPU 0 instructions: 540000000 cycles: 1472198595 heartbeat IPC: 0.384762 cumulative IPC: 0.366185 (Simulation time: 1 hr 49 min 43 sec) 
Heartbeat CPU 0 instructions: 550000001 cycles: 1499301622 heartbeat IPC: 0.368963 cumulative IPC: 0.366235 (Simulation time: 1 hr 51 min 27 sec) 
Heartbeat CPU 0 instructions: 560000001 cycles: 1526765031 heartbeat IPC: 0.364121 cumulative IPC: 0.366197 (Simulation time: 1 hr 53 min 8 sec) 
Heartbeat CPU 0 instructions: 570000003 cycles: 1553370343 heartbeat IPC: 0.375865 cumulative IPC: 0.366363 (Simulation time: 1 hr 54 min 46 sec) 
Heartbeat CPU 0 instructions: 580000001 cycles: 1579864755 heartbeat IPC: 0.377438 cumulative IPC: 0.366549 (Simulation time: 1 hr 56 min 20 sec) 
Heartbeat CPU 0 instructions: 590000003 cycles: 1607411631 heartbeat IPC: 0.363018 cumulative IPC: 0.366488 (Simulation time: 1 hr 58 min 1 sec) 
Heartbeat CPU 0 instructions: 600000001 cycles: 1633883415 heartbeat IPC: 0.377761 cumulative IPC: 0.366671 (Simulation time: 1 hr 59 min 30 sec) 
Heartbeat CPU 0 instructions: 610000000 cycles: 1660764051 heartbeat IPC: 0.372015 cumulative IPC: 0.366757 (Simulation time: 2 hr 1 min 11 sec) 
Heartbeat CPU 0 instructions: 620000000 cycles: 1688990785 heartbeat IPC: 0.354274 cumulative IPC: 0.366549 (Simulation time: 2 hr 2 min 50 sec) 
Heartbeat CPU 0 instructions: 630000000 cycles: 1716420946 heartbeat IPC: 0.364562 cumulative IPC: 0.366517 (Simulation time: 2 hr 4 min 32 sec) 
Heartbeat CPU 0 instructions: 640000001 cycles: 1743735680 heartbeat IPC: 0.366103 cumulative IPC: 0.366511 (Simulation time: 2 hr 6 min 17 sec) 
Heartbeat CPU 0 instructions: 650000003 cycles: 1771774743 heartbeat IPC: 0.356645 cumulative IPC: 0.366354 (Simulation time: 2 hr 8 min 1 sec) 
Heartbeat CPU 0 instructions: 660000001 cycles: 1799918139 heartbeat IPC: 0.355323 cumulative IPC: 0.366182 (Simulation time: 2 hr 9 min 58 sec) 
Heartbeat CPU 0 instructions: 670000000 cycles: 1828048922 heartbeat IPC: 0.355482 cumulative IPC: 0.366017 (Simulation time: 2 hr 11 min 51 sec) 
Heartbeat CPU 0 instructions: 680000002 cycles: 1854850772 heartbeat IPC: 0.373109 cumulative IPC: 0.36612 (Simulation time: 2 hr 13 min 41 sec) 
Heartbeat CPU 0 instructions: 690000002 cycles: 1882101497 heartbeat IPC: 0.366963 cumulative IPC: 0.366132 (Simulation time: 2 hr 15 min 35 sec) 
Heartbeat CPU 0 instructions: 700000000 cycles: 1908752582 heartbeat IPC: 0.375219 cumulative IPC: 0.366259 (Simulation time: 2 hr 17 min 33 sec) 
Heartbeat CPU 0 instructions: 710000000 cycles: 1935590890 heartbeat IPC: 0.372602 cumulative IPC: 0.366347 (Simulation time: 2 hr 19 min 33 sec) 
Heartbeat CPU 0 instructions: 720000002 cycles: 1963864751 heartbeat IPC: 0.353684 cumulative IPC: 0.366164 (Simulation time: 2 hr 21 min 43 sec) 
Heartbeat CPU 0 instructions: 730000002 cycles: 1991237502 heartbeat IPC: 0.365327 cumulative IPC: 0.366153 (Simulation time: 2 hr 23 min 44 sec) 
Heartbeat CPU 0 instructions: 740000001 cycles: 2018724741 heartbeat IPC: 0.363805 cumulative IPC: 0.366121 (Simulation time: 2 hr 25 min 43 sec) 
Heartbeat CPU 0 instructions: 750000003 cycles: 2045742547 heartbeat IPC: 0.370126 cumulative IPC: 0.366174 (Simulation time: 2 hr 27 min 38 sec) 
Heartbeat CPU 0 instructions: 760000001 cycles: 2072571238 heartbeat IPC: 0.372735 cumulative IPC: 0.366259 (Simulation time: 2 hr 29 min 33 sec) 
Heartbeat CPU 0 instructions: 770000002 cycles: 2101530770 heartbeat IPC: 0.345309 cumulative IPC: 0.36597 (Simulation time: 2 hr 31 min 36 sec) 
Heartbeat CPU 0 instructions: 780000001 cycles: 2129759942 heartbeat IPC: 0.354243 cumulative IPC: 0.365815 (Simulation time: 2 hr 33 min 28 sec) 
Heartbeat CPU 0 instructions: 790000004 cycles: 2159704511 heartbeat IPC: 0.33395 cumulative IPC: 0.365373 (Simulation time: 2 hr 35 min 31 sec) 
Heartbeat CPU 0 instructions: 800000003 cycles: 2187594874 heartbeat IPC: 0.358547 cumulative IPC: 0.365286 (Simulation time: 2 hr 37 min 21 sec) 
Heartbeat CPU 0 instructions: 810000002 cycles: 2216045437 heartbeat IPC: 0.351487 cumulative IPC: 0.365109 (Simulation time: 2 hr 39 min 10 sec) 
Heartbeat CPU 0 instructions: 820000000 cycles: 2244161994 heartbeat IPC: 0.355662 cumulative IPC: 0.36499 (Simulation time: 2 hr 40 min 55 sec) 
Heartbeat CPU 0 instructions: 830000000 cycles: 2273007087 heartbeat IPC: 0.346679 cumulative IPC: 0.364758 (Simulation time: 2 hr 42 min 46 sec) 
Heartbeat CPU 0 instructions: 840000000 cycles: 2302007372 heartbeat IPC: 0.344824 cumulative IPC: 0.364507 (Simulation time: 2 hr 44 min 33 sec) 
Heartbeat CPU 0 instructions: 850000001 cycles: 2330361428 heartbeat IPC: 0.352683 cumulative IPC: 0.364363 (Simulation time: 2 hr 46 min 15 sec) 
Heartbeat CPU 0 instructions: 860000002 cycles: 2358878445 heartbeat IPC: 0.350668 cumulative IPC: 0.364197 (Simulation time: 2 hr 47 min 58 sec) 
Heartbeat CPU 0 instructions: 870000000 cycles: 2388080398 heartbeat IPC: 0.342443 cumulative IPC: 0.363931 (Simulation time: 2 hr 49 min 44 sec) 
Heartbeat CPU 0 instructions: 880000001 cycles: 2416045597 heartbeat IPC: 0.357587 cumulative IPC: 0.363858 (Simulation time: 2 hr 51 min 26 sec) 
Heartbeat CPU 0 instructions: 890000001 cycles: 2444308709 heartbeat IPC: 0.353818 cumulative IPC: 0.363742 (Simulation time: 2 hr 53 min 8 sec) 
Heartbeat CPU 0 instructions: 900000003 cycles: 2472424742 heartbeat IPC: 0.355669 cumulative IPC: 0.36365 (Simulation time: 2 hr 54 min 56 sec) 
Heartbeat CPU 0 instructions: 910000001 cycles: 2500728598 heartbeat IPC: 0.353309 cumulative IPC: 0.363533 (Simulation time: 2 hr 56 min 39 sec) 
Heartbeat CPU 0 instructions: 920000001 cycles: 2529077022 heartbeat IPC: 0.352753 cumulative IPC: 0.363412 (Simulation time: 2 hr 58 min 22 sec) 
Heartbeat CPU 0 instructions: 930000001 cycles: 2557754961 heartbeat IPC: 0.3487 cumulative IPC: 0.363247 (Simulation time: 3 hr 0 min 6 sec) 
Heartbeat CPU 0 instructions: 940000003 cycles: 2585770185 heartbeat IPC: 0.356949 cumulative IPC: 0.363179 (Simulation time: 3 hr 1 min 49 sec) 
Heartbeat CPU 0 instructions: 950000002 cycles: 2613808031 heartbeat IPC: 0.356661 cumulative IPC: 0.363109 (Simulation time: 3 hr 3 min 31 sec) 
Heartbeat CPU 0 instructions: 960000000 cycles: 2641527068 heartbeat IPC: 0.360763 cumulative IPC: 0.363084 (Simulation time: 3 hr 5 min 9 sec) 
Heartbeat CPU 0 instructions: 970000001 cycles: 2669708861 heartbeat IPC: 0.354839 cumulative IPC: 0.362997 (Simulation time: 3 hr 6 min 44 sec) 
Heartbeat CPU 0 instructions: 980000000 cycles: 2697868888 heartbeat IPC: 0.355113 cumulative IPC: 0.362915 (Simulation time: 3 hr 8 min 17 sec) 
Heartbeat CPU 0 instructions: 990000003 cycles: 2726056735 heartbeat IPC: 0.354763 cumulative IPC: 0.362831 (Simulation time: 3 hr 9 min 50 sec) 
Heartbeat CPU 0 instructions: 1000000004 cycles: 2753965468 heartbeat IPC: 0.358311 cumulative IPC: 0.362785 (Simulation time: 3 hr 11 min 21 sec) 
Finished CPU 0 instructions: 1000000000 cycles: 2756934393 cumulative IPC: 0.362722 (Simulation time: 3 hr 11 min 31 sec) 

ChampSim completed all CPUs

Region of Interest Statistics

CPU 0 cumulative IPC: 0.362722 instructions: 1000000000 cycles: 2756934393
cpu0_DTLB TOTAL     ACCESS:  253890453  HIT:  234666240  MISS:   19224213
cpu0_DTLB LOAD      ACCESS:  162432709  HIT:  145765112  MISS:   16667597
cpu0_DTLB RFO       ACCESS:   91457744  HIT:   88901128  MISS:    2556616
cpu0_DTLB PREFETCH  ACCESS:          0  HIT:          0  MISS:          0
cpu0_DTLB WRITEBACK ACCESS:          0  HIT:          0  MISS:          0
cpu0_DTLB TRANSLATION ACCESS:          0  HIT:          0  MISS:          0
cpu0_DTLB PREFETCH  REQUESTED:          0  ISSUED:          0  USEFUL:          0  USELESS:          0
cpu0_DTLB AVERAGE MISS LATENCY: 11.454 cycles
cpu0_ITLB TOTAL     ACCESS:   92649024  HIT:   91018239  MISS:    1630785
cpu0_ITLB LOAD      ACCESS:   92649024  HIT:   91018239  MISS:    1630785
cpu0_ITLB RFO       ACCESS:          0  HIT:          0  MISS:          0
cpu0_ITLB PREFETCH  ACCESS:          0  HIT:          0  MISS:          0
cpu0_ITLB WRITEBACK ACCESS:          0  HIT:          0  MISS:          0
cpu0_ITLB TRANSLATION ACCESS:          0  HIT:          0  MISS:          0
cpu0_ITLB PREFETCH  REQUESTED:          0  ISSUED:          0  USEFUL:          0  USELESS:          0
cpu0_ITLB AVERAGE MISS LATENCY: 9.25249 cycles
cpu0_L1I TOTAL     ACCESS:   98471845  HIT:   98092666  MISS:     379179
cpu0_L1I LOAD      ACCESS:   98471845  HIT:   98092666  MISS:     379179
cpu0_L1I RFO       ACCESS:          0  HIT:          0  MISS:          0
cpu0_L1I PREFETCH  ACCESS:          0  HIT:          0  MISS:          0
cpu0_L1I WRITEBACK ACCESS:          0  HIT:          0  MISS:          0
cpu0_L1I TRANSLATION ACCESS:          0  HIT:          0  MISS:          0
cpu0_L1I PREFETCH  REQUESTED:          0  ISSUED:          0  USEFUL:          0  USELESS:          0
cpu0_L1I AVERAGE MISS LATENCY: 41.5501 cycles
cpu0_STLB TOTAL     ACCESS:   20854998  HIT:   16568351  MISS:    4286647
cpu0_STLB LOAD      ACCESS:   18298382  HIT:   14814398  MISS:    3483984
cpu0_STLB RFO       ACCESS:    2556616  HIT:    1753953  MISS:     802663
cpu0_STLB PREFETCH  ACCESS:          0  HIT:          0  MISS:          0
cpu0_STLB WRITEBACK ACCESS:          0  HIT:          0  MISS:          0
cpu0_STLB TRANSLATION ACCESS:          0  HIT:          0  MISS:          0
cpu0_STLB PREFETCH  REQUESTED:          0  ISSUED:          0  USEFUL:          0  USELESS:          0
cpu0_STLB AVERAGE MISS LATENCY: 11.0511 cycles
cpu0_L1D TOTAL     ACCESS:  532882195  HIT:  498086478  MISS:   34795717
cpu0_L1D LOAD      ACCESS:  176957294  HIT:  159813029  MISS:   17144265
cpu0_L1D RFO       ACCESS:  179128579  HIT:  177604041  MISS:    1524538
cpu0_L1D PREFETCH  ACCESS:  172563008  HIT:  156932600  MISS:   15630408
cpu0_L1D WRITEBACK ACCESS:          0  HIT:          0  MISS:          0
cpu0_L1D TRANSLATION ACCESS:    4233314  HIT:    3736808  MISS:     496506
cpu0_L1D PREFETCH  REQUESTED:  178317820  ISSUED:  177981055  USEFUL:   10479234  USELESS:    5890465
cpu0_L1D AVERAGE MISS LATENCY: 188.531 cycles
cpu0_L2C TOTAL     ACCESS:   45807161  HIT:   22817688  MISS:   22989473
cpu0_L2C LOAD      ACCESS:   16957947  HIT:    6317944  MISS:   10640003
cpu0_L2C RFO       ACCESS:    1345203  HIT:     202140  MISS:    1143063
cpu0_L2C PREFETCH  ACCESS:   16629236  HIT:    5490843  MISS:   11138393
cpu0_L2C WRITEBACK ACCESS:   10378269  HIT:   10324056  MISS:      54213
cpu0_L2C TRANSLATION ACCESS:     496506  HIT:     482705  MISS:      13801
cpu0_L2C PREFETCH  REQUESTED:     275110  ISSUED:     263138  USEFUL:      12717  USELESS:     228052
cpu0_L2C AVERAGE MISS LATENCY: 281.951 cycles
LLC TOTAL     ACCESS:   30567674  HIT:   16243857  MISS:   14323817
LLC LOAD      ACCESS:   10639915  HIT:    3883748  MISS:    6756167
LLC RFO       ACCESS:    1143051  HIT:     579121  MISS:     563930
LLC PREFETCH  ACCESS:   11138860  HIT:    4151131  MISS:    6987729
LLC WRITEBACK ACCESS:    7632047  HIT:    7617825  MISS:      14222
LLC TRANSLATION ACCESS:      13801  HIT:      12032  MISS:       1769
LLC PREFETCH  REQUESTED:          0  ISSUED:          0  USEFUL:          0  USELESS:          0
LLC AVERAGE MISS LATENCY: 409.323 cycles

DRAM Statistics
 CHANNEL 0
 RQ ROW_BUFFER_HIT:     613931  ROW_BUFFER_MISS:   13692180
 DBUS AVG_CONGESTED_CYCLE:    3.86907
 WQ ROW_BUFFER_HIT:     259859  ROW_BUFFER_MISS:    4355094  FULL:          0


CPU 0 Branch Prediction Accuracy: 96.2926% MPKI: 7.7084 Average ROB Occupancy at Mispredict: 54.674
Branch type MPKI
BRANCH_DIRECT_JUMP: 8.5e-05
BRANCH_INDIRECT: 0.124685
BRANCH_CONDITIONAL: 7.03073
BRANCH_DIRECT_CALL: 0.000149
BRANCH_INDIRECT_CALL: 0.157817
BRANCH_RETURN: 0.394934

