
*** ChampSim Multicore Out-of-Order Simulator ***

Warmup Instructions: 1000000
Simulation Instructions: 1000000000
Number of CPUs: 1
Off-chip DRAM Size: 4 GiB Channels: 1 Width: 64-bit Data Rate: 3200 MT/s

VirtualMemory physical capacity: 8588881920 num_ppages: 2096895
VirtualMemory page size: 4096 log2_page_size: 12

CPU 0 runs tracer/pin/traces/spec2k6/403.gcc-17B.champsimtrace.xz
Basic BTB sets: 1024 ways: 8 indirect buffer size: 4096 RAS size: 64
cpu0_L1D next line prefetcher
cpu0_L2C IP-based stride prefetcher
WARNING: The extended signature CACHE::prefetch_line(ip, base_addr, pf_addr, fill_this_level, prefetch_metadata) is deprecated.
WARNING: Use CACHE::prefetch_line(pf_addr, fill_this_level, prefetch_metadata) instead.

Warmup complete CPU 0 instructions: 1000003 cycles: 250212 (Simulation time: 0 hr 0 min 2 sec) 

Heartbeat CPU 0 instructions: 10000004 cycles: 22344695 heartbeat IPC: 0.447534 cumulative IPC: 0.407342 (Simulation time: 0 hr 1 min 0 sec) 
Heartbeat CPU 0 instructions: 20000002 cycles: 60303524 heartbeat IPC: 0.263443 cumulative IPC: 0.316386 (Simulation time: 0 hr 2 min 24 sec) 
Heartbeat CPU 0 instructions: 30000004 cycles: 109826174 heartbeat IPC: 0.201928 cumulative IPC: 0.264657 (Simulation time: 0 hr 5 min 39 sec) 
Heartbeat CPU 0 instructions: 40000003 cycles: 186176067 heartbeat IPC: 0.130976 cumulative IPC: 0.209761 (Simulation time: 0 hr 11 min 28 sec) 
Heartbeat CPU 0 instructions: 50000002 cycles: 207969220 heartbeat IPC: 0.45886 cumulative IPC: 0.235896 (Simulation time: 0 hr 12 min 38 sec) 
Heartbeat CPU 0 instructions: 60000000 cycles: 229114894 heartbeat IPC: 0.47291 cumulative IPC: 0.257794 (Simulation time: 0 hr 13 min 48 sec) 
Heartbeat CPU 0 instructions: 70000001 cycles: 248744419 heartbeat IPC: 0.509437 cumulative IPC: 0.277672 (Simulation time: 0 hr 14 min 55 sec) 
Heartbeat CPU 0 instructions: 80000001 cycles: 281234493 heartbeat IPC: 0.307786 cumulative IPC: 0.281155 (Simulation time: 0 hr 16 min 20 sec) 
Heartbeat CPU 0 instructions: 90000000 cycles: 315888107 heartbeat IPC: 0.28857 cumulative IPC: 0.281969 (Simulation time: 0 hr 17 min 47 sec) 
Heartbeat CPU 0 instructions: 100000002 cycles: 361613723 heartbeat IPC: 0.218696 cumulative IPC: 0.273962 (Simulation time: 0 hr 20 min 3 sec) 
Heartbeat CPU 0 instructions: 110000004 cycles: 404524674 heartbeat IPC: 0.233041 cumulative IPC: 0.269619 (Simulation time: 0 hr 22 min 54 sec) 
Heartbeat CPU 0 instructions: 120000001 cycles: 418556878 heartbeat IPC: 0.712646 cumulative IPC: 0.28448 (Simulation time: 0 hr 23 min 56 sec) 
Heartbeat CPU 0 instructions: 130000003 cycles: 432220612 heartbeat IPC: 0.731865 cumulative IPC: 0.298632 (Simulation time: 0 hr 24 min 54 sec) 
Heartbeat CPU 0 instructions: 140000000 cycles: 446210231 heartbeat IPC: 0.714816 cumulative IPC: 0.311687 (Simulation time: 0 hr 25 min 59 sec) 
Heartbeat CPU 0 instructions: 150000003 cycles: 459892989 heartbeat IPC: 0.730847 cumulative IPC: 0.324165 (Simulation time: 0 hr 27 min 1 sec) 
Heartbeat CPU 0 instructions: 160000001 cycles: 474981856 heartbeat IPC: 0.66274 cumulative IPC: 0.334926 (Simulation time: 0 hr 28 min 13 sec) 
Heartbeat CPU 0 instructions: 170000003 cycles: 488633237 heartbeat IPC: 0.732527 cumulative IPC: 0.34604 (Simulation time: 0 hr 29 min 10 sec) 
Heartbeat CPU 0 instructions: 180000003 cycles: 502596623 heartbeat IPC: 0.716159 cumulative IPC: 0.356328 (Simulation time: 0 hr 30 min 16 sec) 
Heartbeat CPU 0 instructions: 190000002 cycles: 516780088 heartbeat IPC: 0.705046 cumulative IPC: 0.365903 (Simulation time: 0 hr 31 min 24 sec) 
Heartbeat CPU 0 instructions: 200000000 cycles: 532189516 heartbeat IPC: 0.648953 cumulative IPC: 0.374103 (Simulation time: 0 hr 32 min 43 sec) 
Heartbeat CPU 0 instructions: 210000000 cycles: 546116493 heartbeat IPC: 0.718031 cumulative IPC: 0.382878 (Simulation time: 0 hr 33 min 50 sec) 
Heartbeat CPU 0 instructions: 220000004 cycles: 560397203 heartbeat IPC: 0.700246 cumulative IPC: 0.390969 (Simulation time: 0 hr 34 min 52 sec) 
Heartbeat CPU 0 instructions: 230000001 cycles: 575006618 heartbeat IPC: 0.68449 cumulative IPC: 0.39843 (Simulation time: 0 hr 35 min 54 sec) 
Heartbeat CPU 0 instructions: 240000002 cycles: 589548943 heartbeat IPC: 0.687648 cumulative IPC: 0.405567 (Simulation time: 0 hr 36 min 54 sec) 
Heartbeat CPU 0 instructions: 250000000 cycles: 603422810 heartbeat IPC: 0.720779 cumulative IPC: 0.412817 (Simulation time: 0 hr 37 min 54 sec) 
Heartbeat CPU 0 instructions: 260000001 cycles: 617178001 heartbeat IPC: 0.726998 cumulative IPC: 0.419822 (Simulation time: 0 hr 38 min 54 sec) 
Heartbeat CPU 0 instructions: 270000002 cycles: 630811143 heartbeat IPC: 0.733507 cumulative IPC: 0.426604 (Simulation time: 0 hr 39 min 57 sec) 
Heartbeat CPU 0 instructions: 280000002 cycles: 644670975 heartbeat IPC: 0.721509 cumulative IPC: 0.432947 (Simulation time: 0 hr 41 min 2 sec) 
Heartbeat CPU 0 instructions: 290000000 cycles: 658983878 heartbeat IPC: 0.69867 cumulative IPC: 0.438721 (Simulation time: 0 hr 42 min 9 sec) 
Heartbeat CPU 0 instructions: 300000004 cycles: 673096858 heartbeat IPC: 0.708568 cumulative IPC: 0.444381 (Simulation time: 0 hr 43 min 12 sec) 
Heartbeat CPU 0 instructions: 310000000 cycles: 688243637 heartbeat IPC: 0.660206 cumulative IPC: 0.449132 (Simulation time: 0 hr 44 min 23 sec) 
Heartbeat CPU 0 instructions: 320000004 cycles: 702707204 heartbeat IPC: 0.691393 cumulative IPC: 0.45412 (Simulation time: 0 hr 45 min 29 sec) 
Heartbeat CPU 0 instructions: 330000003 cycles: 717037865 heartbeat IPC: 0.697804 cumulative IPC: 0.458992 (Simulation time: 0 hr 46 min 33 sec) 
Heartbeat CPU 0 instructions: 340000003 cycles: 731603057 heartbeat IPC: 0.686568 cumulative IPC: 0.463525 (Simulation time: 0 hr 47 min 37 sec) 
Heartbeat CPU 0 instructions: 350000001 cycles: 745461902 heartbeat IPC: 0.721561 cumulative IPC: 0.468323 (Simulation time: 0 hr 48 min 43 sec) 
Heartbeat CPU 0 instructions: 360000001 cycles: 758917019 heartbeat IPC: 0.743212 cumulative IPC: 0.473199 (Simulation time: 0 hr 49 min 50 sec) 
Heartbeat CPU 0 instructions: 370000003 cycles: 773102981 heartbeat IPC: 0.704922 cumulative IPC: 0.477452 (Simulation time: 0 hr 50 min 55 sec) 
Heartbeat CPU 0 instructions: 380000002 cycles: 786482228 heartbeat IPC: 0.747426 cumulative IPC: 0.482046 (Simulation time: 0 hr 51 min 57 sec) 
Heartbeat CPU 0 instructions: 390000000 cycles: 800206743 heartbeat IPC: 0.728623 cumulative IPC: 0.486276 (Simulation time: 0 hr 53 min 4 sec) 
Heartbeat CPU 0 instructions: 400000001 cycles: 814710308 heartbeat IPC: 0.689486 cumulative IPC: 0.489895 (Simulation time: 0 hr 54 min 12 sec) 
Heartbeat CPU 0 instructions: 410000004 cycles: 828246357 heartbeat IPC: 0.738768 cumulative IPC: 0.493964 (Simulation time: 0 hr 55 min 13 sec) 
Heartbeat CPU 0 instructions: 420000002 cycles: 842167443 heartbeat IPC: 0.718335 cumulative IPC: 0.497674 (Simulation time: 0 hr 56 min 26 sec) 
Heartbeat CPU 0 instructions: 430000004 cycles: 855976771 heartbeat IPC: 0.724148 cumulative IPC: 0.501328 (Simulation time: 0 hr 57 min 37 sec) 
Heartbeat CPU 0 instructions: 440000000 cycles: 870608032 heartbeat IPC: 0.683468 cumulative IPC: 0.50439 (Simulation time: 0 hr 58 min 52 sec) 
Heartbeat CPU 0 instructions: 450000003 cycles: 885692702 heartbeat IPC: 0.662925 cumulative IPC: 0.507091 (Simulation time: 1 hr 0 min 4 sec) 
Heartbeat CPU 0 instructions: 460000002 cycles: 900145814 heartbeat IPC: 0.691892 cumulative IPC: 0.510059 (Simulation time: 1 hr 1 min 20 sec) 
Heartbeat CPU 0 instructions: 470000004 cycles: 914111551 heartbeat IPC: 0.716038 cumulative IPC: 0.513207 (Simulation time: 1 hr 2 min 37 sec) 
Heartbeat CPU 0 instructions: 480000002 cycles: 928034557 heartbeat IPC: 0.718236 cumulative IPC: 0.516284 (Simulation time: 1 hr 3 min 49 sec) 
Heartbeat CPU 0 instructions: 490000003 cycles: 941540646 heartbeat IPC: 0.740407 cumulative IPC: 0.5195 (Simulation time: 1 hr 5 min 0 sec) 
Heartbeat CPU 0 instructions: 500000001 cycles: 955354768 heartbeat IPC: 0.723897 cumulative IPC: 0.522456 (Simulation time: 1 hr 6 min 16 sec) 
Heartbeat CPU 0 instructions: 510000001 cycles: 969346705 heartbeat IPC: 0.714697 cumulative IPC: 0.525231 (Simulation time: 1 hr 7 min 34 sec) 
Heartbeat CPU 0 instructions: 520000000 cycles: 984171895 heartbeat IPC: 0.674528 cumulative IPC: 0.527481 (Simulation time: 1 hr 8 min 52 sec) 
Heartbeat CPU 0 instructions: 530000000 cycles: 998919601 heartbeat IPC: 0.678072 cumulative IPC: 0.529705 (Simulation time: 1 hr 10 min 7 sec) 
Heartbeat CPU 0 instructions: 540000001 cycles: 1013228340 heartbeat IPC: 0.698874 cumulative IPC: 0.532094 (Simulation time: 1 hr 11 min 16 sec) 
Heartbeat CPU 0 instructions: 550000000 cycles: 1027079142 heartbeat IPC: 0.72198 cumulative IPC: 0.534656 (Simulation time: 1 hr 12 min 21 sec) 
Heartbeat CPU 0 instructions: 560000003 cycles: 1041668468 heartbeat IPC: 0.685433 cumulative IPC: 0.536768 (Simulation time: 1 hr 13 min 32 sec) 
Heartbeat CPU 0 instructions: 570000002 cycles: 1055756746 heartbeat IPC: 0.70981 cumulative IPC: 0.539078 (Simulation time: 1 hr 14 min 39 sec) 
Heartbeat CPU 0 instructions: 580000004 cycles: 1069726548 heartbeat IPC: 0.71583 cumulative IPC: 0.541386 (Simulation time: 1 hr 15 min 47 sec) 
Heartbeat CPU 0 instructions: 590000002 cycles: 1084139903 heartbeat IPC: 0.693801 cumulative IPC: 0.543413 (Simulation time: 1 hr 16 min 56 sec) 
Heartbeat CPU 0 instructions: 600000002 cycles: 1098032291 heartbeat IPC: 0.719819 cumulative IPC: 0.545646 (Simulation time: 1 hr 18 min 1 sec) 
Heartbeat CPU 0 instructions: 610000002 cycles: 1111479607 heartbeat IPC: 0.743643 cumulative IPC: 0.548042 (Simulation time: 1 hr 19 min 3 sec) 
Heartbeat CPU 0 instructions: 620000001 cycles: 1126087256 heartbeat IPC: 0.684573 cumulative IPC: 0.549813 (Simulation time: 1 hr 20 min 12 sec) 
Heartbeat CPU 0 instructions: 630000002 cycles: 1139878524 heartbeat IPC: 0.725097 cumulative IPC: 0.551934 (Simulation time: 1 hr 21 min 14 sec) 
Heartbeat CPU 0 instructions: 640000002 cycles: 1154586521 heartbeat IPC: 0.679902 cumulative IPC: 0.553565 (Simulation time: 1 hr 22 min 21 sec) 
Heartbeat CPU 0 instructions: 650000001 cycles: 1168474658 heartbeat IPC: 0.720039 cumulative IPC: 0.555544 (Simulation time: 1 hr 23 min 24 sec) 
Heartbeat CPU 0 instructions: 660000002 cycles: 1182531515 heartbeat IPC: 0.711397 cumulative IPC: 0.557397 (Simulation time: 1 hr 24 min 26 sec) 
Heartbeat CPU 0 instructions: 670000000 cycles: 1196111755 heartbeat IPC: 0.736364 cumulative IPC: 0.559429 (Simulation time: 1 hr 25 min 27 sec) 
Heartbeat CPU 0 instructions: 680000002 cycles: 1211024935 heartbeat IPC: 0.670548 cumulative IPC: 0.560798 (Simulation time: 1 hr 26 min 34 sec) 
Heartbeat CPU 0 instructions: 690000001 cycles: 1224791460 heartbeat IPC: 0.7264 cumulative IPC: 0.56266 (Simulation time: 1 hr 27 min 37 sec) 
Heartbeat CPU 0 instructions: 700000000 cycles: 1238424925 heartbeat IPC: 0.733489 cumulative IPC: 0.564541 (Simulation time: 1 hr 28 min 39 sec) 
Heartbeat CPU 0 instructions: 710000000 cycles: 1252701358 heartbeat IPC: 0.700455 cumulative IPC: 0.56609 (Simulation time: 1 hr 29 min 45 sec) 
Heartbeat CPU 0 instructions: 720000001 cycles: 1266804475 heartbeat IPC: 0.709063 cumulative IPC: 0.567682 (Simulation time: 1 hr 30 min 50 sec) 
Heartbeat CPU 0 instructions: 730000002 cycles: 1280330018 heartbeat IPC: 0.739342 cumulative IPC: 0.569496 (Simulation time: 1 hr 31 min 49 sec) 
Heartbeat CPU 0 instructions: 740000002 cycles: 1294421114 heartbeat IPC: 0.709668 cumulative IPC: 0.571022 (Simulation time: 1 hr 32 min 50 sec) 
Heartbeat CPU 0 instructions: 750000001 cycles: 1308156169 heartbeat IPC: 0.728064 cumulative IPC: 0.572671 (Simulation time: 1 hr 33 min 47 sec) 
Heartbeat CPU 0 instructions: 760000000 cycles: 1323125461 heartbeat IPC: 0.668034 cumulative IPC: 0.57375 (Simulation time: 1 hr 34 min 51 sec) 
Heartbeat CPU 0 instructions: 770000000 cycles: 1337205789 heartbeat IPC: 0.710211 cumulative IPC: 0.575187 (Simulation time: 1 hr 35 min 51 sec) 
Heartbeat CPU 0 instructions: 780000004 cycles: 1351525671 heartbeat IPC: 0.69833 cumulative IPC: 0.576492 (Simulation time: 1 hr 36 min 51 sec) 
Heartbeat CPU 0 instructions: 790000000 cycles: 1365451144 heartbeat IPC: 0.718108 cumulative IPC: 0.577937 (Simulation time: 1 hr 37 min 51 sec) 
Heartbeat CPU 0 instructions: 800000002 cycles: 1379655698 heartbeat IPC: 0.704 cumulative IPC: 0.579235 (Simulation time: 1 hr 38 min 49 sec) 
Heartbeat CPU 0 instructions: 810000003 cycles: 1392915091 heartbeat IPC: 0.754182 cumulative IPC: 0.580901 (Simulation time: 1 hr 39 min 45 sec) 
Heartbeat CPU 0 instructions: 820000000 cycles: 1406864107 heartbeat IPC: 0.716896 cumulative IPC: 0.582249 (Simulation time: 1 hr 40 min 41 sec) 
Heartbeat CPU 0 instructions: 830000000 cycles: 1420287974 heartbeat IPC: 0.744942 cumulative IPC: 0.583787 (Simulation time: 1 hr 41 min 36 sec) 
Heartbeat CPU 0 instructions: 840000001 cycles: 1434797819 heartbeat IPC: 0.689187 cumulative IPC: 0.584853 (Simulation time: 1 hr 42 min 30 sec) 
Heartbeat CPU 0 instructions: 850000002 cycles: 1448664236 heartbeat IPC: 0.721167 cumulative IPC: 0.586158 (Simulation time: 1 hr 43 min 21 sec) 
Heartbeat CPU 0 instructions: 860000002 cycles: 1462998036 heartbeat IPC: 0.697652 cumulative IPC: 0.587251 (Simulation time: 1 hr 44 min 13 sec) 
Heartbeat CPU 0 instructions: 870000002 cycles: 1476717329 heartbeat IPC: 0.728901 cumulative IPC: 0.588567 (Simulation time: 1 hr 45 min 2 sec) 
Heartbeat CPU 0 instructions: 880000004 cycles: 1490922907 heartbeat IPC: 0.703949 cumulative IPC: 0.589667 (Simulation time: 1 hr 45 min 52 sec) 
Heartbeat CPU 0 instructions: 890000001 cycles: 1504727694 heartbeat IPC: 0.724386 cumulative IPC: 0.590903 (Simulation time: 1 hr 46 min 39 sec) 
Heartbeat CPU 0 instructions: 900000000 cycles: 1518872590 heartbeat IPC: 0.706969 cumulative IPC: 0.591984 (Simulation time: 1 hr 47 min 29 sec) 
Heartbeat CPU 0 instructions: 910000000 cycles: 1534015251 heartbeat IPC: 0.660386 cumulative IPC: 0.592659 (Simulation time: 1 hr 48 min 21 sec) 
Heartbeat CPU 0 instructions: 920000002 cycles: 1548812805 heartbeat IPC: 0.675788 cumulative IPC: 0.593454 (Simulation time: 1 hr 49 min 12 sec) 
Heartbeat CPU 0 instructions: 930000004 cycles: 1563008687 heartbeat IPC: 0.70443 cumulative IPC: 0.594462 (Simulation time: 1 hr 50 min 2 sec) 
Heartbeat CPU 0 instructions: 940000003 cycles: 1577196188 heartbeat IPC: 0.704846 cumulative IPC: 0.595455 (Simulation time: 1 hr 50 min 51 sec) 
Heartbeat CPU 0 instructions: 950000001 cycles: 1590867850 heartbeat IPC: 0.73144 cumulative IPC: 0.596624 (Simulation time: 1 hr 51 min 39 sec) 
Heartbeat CPU 0 instructions: 960000001 cycles: 1605477229 heartbeat IPC: 0.684492 cumulative IPC: 0.597423 (Simulation time: 1 hr 52 min 29 sec) 
Heartbeat CPU 0 instructions: 970000001 cycles: 1620383266 heartbeat IPC: 0.670869 cumulative IPC: 0.598099 (Simulation time: 1 hr 53 min 20 sec) 
Heartbeat CPU 0 instructions: 980000001 cycles: 1634004269 heartbeat IPC: 0.73416 cumulative IPC: 0.599233 (Simulation time: 1 hr 54 min 7 sec) 
Heartbeat CPU 0 instructions: 990000000 cycles: 1648476035 heartbeat IPC: 0.691001 cumulative IPC: 0.600039 (Simulation time: 1 hr 54 min 55 sec) 
Heartbeat CPU 0 instructions: 1000000001 cycles: 1662142005 heartbeat IPC: 0.731745 cumulative IPC: 0.601122 (Simulation time: 1 hr 55 min 41 sec) 
Finished CPU 0 instructions: 1000000001 cycles: 1663276081 cumulative IPC: 0.601223 (Simulation time: 1 hr 55 min 46 sec) 

ChampSim completed all CPUs

Region of Interest Statistics

CPU 0 cumulative IPC: 0.601223 instructions: 1000000001 cycles: 1663276081
cpu0_DTLB TOTAL     ACCESS:  226825526  HIT:  221532624  MISS:    5292902
cpu0_DTLB LOAD      ACCESS:  166450839  HIT:  161726763  MISS:    4724076
cpu0_DTLB RFO       ACCESS:   60374687  HIT:   59805861  MISS:     568826
cpu0_DTLB PREFETCH  ACCESS:          0  HIT:          0  MISS:          0
cpu0_DTLB WRITEBACK ACCESS:          0  HIT:          0  MISS:          0
cpu0_DTLB TRANSLATION ACCESS:          0  HIT:          0  MISS:          0
cpu0_DTLB PREFETCH  REQUESTED:          0  ISSUED:          0  USEFUL:          0  USELESS:          0
cpu0_DTLB AVERAGE MISS LATENCY: 14.2376 cycles
cpu0_ITLB TOTAL     ACCESS:   82576314  HIT:   82574352  MISS:       1962
cpu0_ITLB LOAD      ACCESS:   82576314  HIT:   82574352  MISS:       1962
cpu0_ITLB RFO       ACCESS:          0  HIT:          0  MISS:          0
cpu0_ITLB PREFETCH  ACCESS:          0  HIT:          0  MISS:          0
cpu0_ITLB WRITEBACK ACCESS:          0  HIT:          0  MISS:          0
cpu0_ITLB TRANSLATION ACCESS:          0  HIT:          0  MISS:          0
cpu0_ITLB PREFETCH  REQUESTED:          0  ISSUED:          0  USEFUL:          0  USELESS:          0
cpu0_ITLB AVERAGE MISS LATENCY: 13.8364 cycles
cpu0_L1I TOTAL     ACCESS:   98883061  HIT:   98880159  MISS:       2902
cpu0_L1I LOAD      ACCESS:   98883061  HIT:   98880159  MISS:       2902
cpu0_L1I RFO       ACCESS:          0  HIT:          0  MISS:          0
cpu0_L1I PREFETCH  ACCESS:          0  HIT:          0  MISS:          0
cpu0_L1I WRITEBACK ACCESS:          0  HIT:          0  MISS:          0
cpu0_L1I TRANSLATION ACCESS:          0  HIT:          0  MISS:          0
cpu0_L1I PREFETCH  REQUESTED:          0  ISSUED:          0  USEFUL:          0  USELESS:          0
cpu0_L1I AVERAGE MISS LATENCY: 171.716 cycles
cpu0_STLB TOTAL     ACCESS:    5294864  HIT:    2965823  MISS:    2329041
cpu0_STLB LOAD      ACCESS:    4726038  HIT:    2936837  MISS:    1789201
cpu0_STLB RFO       ACCESS:     568826  HIT:      28986  MISS:     539840
cpu0_STLB PREFETCH  ACCESS:          0  HIT:          0  MISS:          0
cpu0_STLB WRITEBACK ACCESS:          0  HIT:          0  MISS:          0
cpu0_STLB TRANSLATION ACCESS:          0  HIT:          0  MISS:          0
cpu0_STLB PREFETCH  REQUESTED:          0  ISSUED:          0  USEFUL:          0  USELESS:          0
cpu0_STLB AVERAGE MISS LATENCY: 11.8499 cycles
cpu0_L1D TOTAL     ACCESS:  457193803  HIT:  438833014  MISS:   18360789
cpu0_L1D LOAD      ACCESS:  159689536  HIT:  151351786  MISS:    8337750
cpu0_L1D RFO       ACCESS:  137402031  HIT:  136093206  MISS:    1308825
cpu0_L1D PREFETCH  ACCESS:  157786162  HIT:  149107467  MISS:    8678695
cpu0_L1D WRITEBACK ACCESS:          0  HIT:          0  MISS:          0
cpu0_L1D TRANSLATION ACCESS:    2316074  HIT:    2280555  MISS:      35519
cpu0_L1D PREFETCH  REQUESTED:  160267604  ISSUED:  159626497  USEFUL:    4426102  USELESS:    4328100
cpu0_L1D AVERAGE MISS LATENCY: 159.547 cycles
cpu0_L2C TOTAL     ACCESS:   21131698  HIT:    4372142  MISS:   16759556
cpu0_L2C LOAD      ACCESS:    8273964  HIT:     947566  MISS:    7326398
cpu0_L2C RFO       ACCESS:    1299761  HIT:      13481  MISS:    1286280
cpu0_L2C PREFETCH  ACCESS:    9218625  HIT:    1086481  MISS:    8132144
cpu0_L2C WRITEBACK ACCESS:    2303829  HIT:    2297339  MISS:       6490
cpu0_L2C TRANSLATION ACCESS:      35519  HIT:      27275  MISS:       8244
cpu0_L2C PREFETCH  REQUESTED:     481086  ISSUED:     472281  USEFUL:      98439  USELESS:     190843
cpu0_L2C AVERAGE MISS LATENCY: 165.901 cycles
LLC TOTAL     ACCESS:   19025069  HIT:   13718360  MISS:    5306709
LLC LOAD      ACCESS:    7326388  HIT:    5459967  MISS:    1866421
LLC RFO       ACCESS:    1286279  HIT:       3277  MISS:    1283002
LLC PREFETCH  ACCESS:    8135838  HIT:    5980743  MISS:    2155095
LLC WRITEBACK ACCESS:    2268320  HIT:    2267062  MISS:       1258
LLC TRANSLATION ACCESS:       8244  HIT:       7311  MISS:        933
LLC PREFETCH  REQUESTED:          0  ISSUED:          0  USEFUL:          0  USELESS:          0
LLC AVERAGE MISS LATENCY: 439.193 cycles

DRAM Statistics
 CHANNEL 0
 RQ ROW_BUFFER_HIT:     440199  ROW_BUFFER_MISS:    4865172
 DBUS AVG_CONGESTED_CYCLE:    3.81302
 WQ ROW_BUFFER_HIT:     362481  ROW_BUFFER_MISS:    1552217  FULL:          0


CPU 0 Branch Prediction Accuracy: 92.9219% MPKI: 16.69 Average ROB Occupancy at Mispredict: 28.5739
Branch type MPKI
BRANCH_DIRECT_JUMP: 0.000223
BRANCH_INDIRECT: 0.103654
BRANCH_CONDITIONAL: 16.5852
BRANCH_DIRECT_CALL: 0.000322
BRANCH_INDIRECT_CALL: 0.000204
BRANCH_RETURN: 0.000382

