
*** ChampSim Multicore Out-of-Order Simulator ***

Warmup Instructions: 1000000
Simulation Instructions: 1000000000
Number of CPUs: 1
Off-chip DRAM Size: 4 GiB Channels: 1 Width: 64-bit Data Rate: 3200 MT/s

VirtualMemory physical capacity: 8588881920 num_ppages: 2096895
VirtualMemory page size: 4096 log2_page_size: 12

CPU 0 runs tracer/pin/traces/spec2k6/462.libquantum-1343B.champsimtrace.xz
Basic BTB sets: 1024 ways: 8 indirect buffer size: 4096 RAS size: 64
cpu0_L1D next line prefetcher
cpu0_L2C IP-based stride prefetcher
WARNING: The extended signature CACHE::prefetch_line(ip, base_addr, pf_addr, fill_this_level, prefetch_metadata) is deprecated.
WARNING: Use CACHE::prefetch_line(pf_addr, fill_this_level, prefetch_metadata) instead.

Warmup complete CPU 0 instructions: 1000004 cycles: 269650 (Simulation time: 0 hr 0 min 3 sec) 

Heartbeat CPU 0 instructions: 10000001 cycles: 25748960 heartbeat IPC: 0.388365 cumulative IPC: 0.353228 (Simulation time: 0 hr 1 min 47 sec) 
Heartbeat CPU 0 instructions: 20000002 cycles: 53887243 heartbeat IPC: 0.355388 cumulative IPC: 0.354361 (Simulation time: 0 hr 3 min 44 sec) 
Heartbeat CPU 0 instructions: 30000001 cycles: 89957780 heartbeat IPC: 0.277235 cumulative IPC: 0.323343 (Simulation time: 0 hr 5 min 45 sec) 
Heartbeat CPU 0 instructions: 40000001 cycles: 134842375 heartbeat IPC: 0.222794 cumulative IPC: 0.289806 (Simulation time: 0 hr 8 min 4 sec) 
Heartbeat CPU 0 instructions: 50000001 cycles: 182423633 heartbeat IPC: 0.210167 cumulative IPC: 0.269003 (Simulation time: 0 hr 11 min 29 sec) 
Heartbeat CPU 0 instructions: 60000004 cycles: 233358052 heartbeat IPC: 0.196331 cumulative IPC: 0.253123 (Simulation time: 0 hr 15 min 56 sec) 
Heartbeat CPU 0 instructions: 70000004 cycles: 266047316 heartbeat IPC: 0.305911 cumulative IPC: 0.259615 (Simulation time: 0 hr 18 min 17 sec) 
Heartbeat CPU 0 instructions: 80000000 cycles: 298012106 heartbeat IPC: 0.312844 cumulative IPC: 0.26533 (Simulation time: 0 hr 20 min 35 sec) 
Heartbeat CPU 0 instructions: 90000003 cycles: 326525323 heartbeat IPC: 0.350715 cumulative IPC: 0.272792 (Simulation time: 0 hr 22 min 53 sec) 
Heartbeat CPU 0 instructions: 100000003 cycles: 353607820 heartbeat IPC: 0.369242 cumulative IPC: 0.280185 (Simulation time: 0 hr 25 min 13 sec) 
Heartbeat CPU 0 instructions: 110000000 cycles: 382555967 heartbeat IPC: 0.345445 cumulative IPC: 0.285127 (Simulation time: 0 hr 27 min 31 sec) 
Heartbeat CPU 0 instructions: 120000003 cycles: 414598422 heartbeat IPC: 0.312086 cumulative IPC: 0.287212 (Simulation time: 0 hr 30 min 0 sec) 
Heartbeat CPU 0 instructions: 130000003 cycles: 446270282 heartbeat IPC: 0.315738 cumulative IPC: 0.289237 (Simulation time: 0 hr 32 min 37 sec) 
Heartbeat CPU 0 instructions: 140000003 cycles: 472038133 heartbeat IPC: 0.38808 cumulative IPC: 0.294636 (Simulation time: 0 hr 35 min 10 sec) 
Heartbeat CPU 0 instructions: 150000001 cycles: 497611837 heartbeat IPC: 0.391027 cumulative IPC: 0.299593 (Simulation time: 0 hr 37 min 43 sec) 
Heartbeat CPU 0 instructions: 160000001 cycles: 527825669 heartbeat IPC: 0.330974 cumulative IPC: 0.30139 (Simulation time: 0 hr 40 min 16 sec) 
Heartbeat CPU 0 instructions: 170000003 cycles: 559816605 heartbeat IPC: 0.312589 cumulative IPC: 0.30203 (Simulation time: 0 hr 42 min 54 sec) 
Heartbeat CPU 0 instructions: 180000004 cycles: 590170642 heartbeat IPC: 0.329446 cumulative IPC: 0.303441 (Simulation time: 0 hr 45 min 34 sec) 
Heartbeat CPU 0 instructions: 190000001 cycles: 617862649 heartbeat IPC: 0.361115 cumulative IPC: 0.306027 (Simulation time: 0 hr 48 min 12 sec) 
Heartbeat CPU 0 instructions: 200000003 cycles: 646938375 heartbeat IPC: 0.34393 cumulative IPC: 0.307731 (Simulation time: 0 hr 50 min 51 sec) 
Heartbeat CPU 0 instructions: 210000001 cycles: 689761781 heartbeat IPC: 0.233517 cumulative IPC: 0.303122 (Simulation time: 0 hr 53 min 50 sec) 
Heartbeat CPU 0 instructions: 220000003 cycles: 732811569 heartbeat IPC: 0.232289 cumulative IPC: 0.298959 (Simulation time: 0 hr 57 min 5 sec) 
Heartbeat CPU 0 instructions: 230000002 cycles: 784408106 heartbeat IPC: 0.193811 cumulative IPC: 0.29204 (Simulation time: 1 hr 2 min 20 sec) 
Heartbeat CPU 0 instructions: 240000002 cycles: 823254896 heartbeat IPC: 0.257422 cumulative IPC: 0.290406 (Simulation time: 1 hr 5 min 45 sec) 
Heartbeat CPU 0 instructions: 250000000 cycles: 854235620 heartbeat IPC: 0.322781 cumulative IPC: 0.291581 (Simulation time: 1 hr 8 min 17 sec) 
Heartbeat CPU 0 instructions: 260000003 cycles: 889576910 heartbeat IPC: 0.282955 cumulative IPC: 0.291238 (Simulation time: 1 hr 10 min 56 sec) 
Heartbeat CPU 0 instructions: 270000000 cycles: 933460329 heartbeat IPC: 0.227876 cumulative IPC: 0.288258 (Simulation time: 1 hr 13 min 50 sec) 
Heartbeat CPU 0 instructions: 280000000 cycles: 979393806 heartbeat IPC: 0.217706 cumulative IPC: 0.284949 (Simulation time: 1 hr 17 min 34 sec) 
Heartbeat CPU 0 instructions: 290000001 cycles: 1030967458 heartbeat IPC: 0.193897 cumulative IPC: 0.280393 (Simulation time: 1 hr 22 min 28 sec) 
Heartbeat CPU 0 instructions: 300000000 cycles: 1076551397 heartbeat IPC: 0.219375 cumulative IPC: 0.277808 (Simulation time: 1 hr 25 min 20 sec) 
Heartbeat CPU 0 instructions: 310000003 cycles: 1120215517 heartbeat IPC: 0.229021 cumulative IPC: 0.275906 (Simulation time: 1 hr 28 min 6 sec) 
Heartbeat CPU 0 instructions: 320000002 cycles: 1170871621 heartbeat IPC: 0.19741 cumulative IPC: 0.272509 (Simulation time: 1 hr 33 min 0 sec) 
Heartbeat CPU 0 instructions: 330000002 cycles: 1217355038 heartbeat IPC: 0.21513 cumulative IPC: 0.270318 (Simulation time: 1 hr 36 min 49 sec) 
Heartbeat CPU 0 instructions: 340000003 cycles: 1256903785 heartbeat IPC: 0.252853 cumulative IPC: 0.269768 (Simulation time: 1 hr 39 min 36 sec) 
Heartbeat CPU 0 instructions: 350000001 cycles: 1291995052 heartbeat IPC: 0.284971 cumulative IPC: 0.270181 (Simulation time: 1 hr 42 min 19 sec) 
Heartbeat CPU 0 instructions: 360000003 cycles: 1323978285 heartbeat IPC: 0.312664 cumulative IPC: 0.271208 (Simulation time: 1 hr 44 min 56 sec) 
Heartbeat CPU 0 instructions: 370000003 cycles: 1360115898 heartbeat IPC: 0.27672 cumulative IPC: 0.271354 (Simulation time: 1 hr 48 min 6 sec) 
Heartbeat CPU 0 instructions: 380000002 cycles: 1411664412 heartbeat IPC: 0.193992 cumulative IPC: 0.268529 (Simulation time: 1 hr 52 min 57 sec) 
Heartbeat CPU 0 instructions: 390000000 cycles: 1458164147 heartbeat IPC: 0.215055 cumulative IPC: 0.266823 (Simulation time: 1 hr 56 min 19 sec) 
Heartbeat CPU 0 instructions: 400000002 cycles: 1501895980 heartbeat IPC: 0.228666 cumulative IPC: 0.265712 (Simulation time: 1 hr 59 min 16 sec) 
Heartbeat CPU 0 instructions: 410000001 cycles: 1533865880 heartbeat IPC: 0.312794 cumulative IPC: 0.266693 (Simulation time: 2 hr 1 min 58 sec) 
Heartbeat CPU 0 instructions: 420000003 cycles: 1563124438 heartbeat IPC: 0.34178 cumulative IPC: 0.268099 (Simulation time: 2 hr 4 min 34 sec) 
Heartbeat CPU 0 instructions: 430000000 cycles: 1593164963 heartbeat IPC: 0.332884 cumulative IPC: 0.269321 (Simulation time: 2 hr 7 min 11 sec) 
Heartbeat CPU 0 instructions: 440000000 cycles: 1624124722 heartbeat IPC: 0.323 cumulative IPC: 0.270344 (Simulation time: 2 hr 9 min 48 sec) 
Heartbeat CPU 0 instructions: 450000004 cycles: 1654845437 heartbeat IPC: 0.325513 cumulative IPC: 0.271369 (Simulation time: 2 hr 12 min 27 sec) 
Heartbeat CPU 0 instructions: 460000000 cycles: 1682478530 heartbeat IPC: 0.361885 cumulative IPC: 0.272856 (Simulation time: 2 hr 15 min 3 sec) 
Heartbeat CPU 0 instructions: 470000003 cycles: 1710058250 heartbeat IPC: 0.362585 cumulative IPC: 0.274303 (Simulation time: 2 hr 17 min 35 sec) 
Heartbeat CPU 0 instructions: 480000003 cycles: 1740354991 heartbeat IPC: 0.330068 cumulative IPC: 0.275274 (Simulation time: 2 hr 20 min 7 sec) 
Heartbeat CPU 0 instructions: 490000003 cycles: 1771279069 heartbeat IPC: 0.323373 cumulative IPC: 0.276114 (Simulation time: 2 hr 22 min 43 sec) 
Heartbeat CPU 0 instructions: 500000004 cycles: 1803342036 heartbeat IPC: 0.311886 cumulative IPC: 0.27675 (Simulation time: 2 hr 25 min 17 sec) 
Heartbeat CPU 0 instructions: 510000002 cycles: 1836184121 heartbeat IPC: 0.304487 cumulative IPC: 0.277246 (Simulation time: 2 hr 27 min 54 sec) 
Heartbeat CPU 0 instructions: 520000001 cycles: 1868603888 heartbeat IPC: 0.308454 cumulative IPC: 0.277788 (Simulation time: 2 hr 30 min 31 sec) 
Heartbeat CPU 0 instructions: 530000002 cycles: 1899603601 heartbeat IPC: 0.322584 cumulative IPC: 0.278519 (Simulation time: 2 hr 33 min 11 sec) 
Heartbeat CPU 0 instructions: 540000004 cycles: 1930603240 heartbeat IPC: 0.322584 cumulative IPC: 0.279226 (Simulation time: 2 hr 35 min 46 sec) 
Heartbeat CPU 0 instructions: 550000000 cycles: 1978113923 heartbeat IPC: 0.210479 cumulative IPC: 0.277575 (Simulation time: 2 hr 40 min 45 sec) 
Heartbeat CPU 0 instructions: 560000003 cycles: 2029442303 heartbeat IPC: 0.194824 cumulative IPC: 0.275482 (Simulation time: 2 hr 45 min 18 sec) 
Heartbeat CPU 0 instructions: 570000002 cycles: 2077307906 heartbeat IPC: 0.208918 cumulative IPC: 0.273948 (Simulation time: 2 hr 48 min 21 sec) 
Heartbeat CPU 0 instructions: 580000000 cycles: 2118221641 heartbeat IPC: 0.244417 cumulative IPC: 0.273377 (Simulation time: 2 hr 51 min 17 sec) 
Heartbeat CPU 0 instructions: 590000004 cycles: 2148157736 heartbeat IPC: 0.334045 cumulative IPC: 0.274223 (Simulation time: 2 hr 53 min 55 sec) 
Heartbeat CPU 0 instructions: 600000001 cycles: 2178075358 heartbeat IPC: 0.334251 cumulative IPC: 0.275047 (Simulation time: 2 hr 56 min 33 sec) 
Heartbeat CPU 0 instructions: 610000000 cycles: 2210050691 heartbeat IPC: 0.312741 cumulative IPC: 0.275593 (Simulation time: 2 hr 59 min 14 sec) 
Heartbeat CPU 0 instructions: 620000002 cycles: 2242032218 heartbeat IPC: 0.312681 cumulative IPC: 0.276122 (Simulation time: 3 hr 1 min 56 sec) 
Heartbeat CPU 0 instructions: 630000004 cycles: 2274024914 heartbeat IPC: 0.312571 cumulative IPC: 0.276635 (Simulation time: 3 hr 4 min 37 sec) 
Heartbeat CPU 0 instructions: 640000000 cycles: 2305727900 heartbeat IPC: 0.315428 cumulative IPC: 0.277168 (Simulation time: 3 hr 7 min 15 sec) 
Heartbeat CPU 0 instructions: 650000002 cycles: 2337417748 heartbeat IPC: 0.315559 cumulative IPC: 0.277689 (Simulation time: 3 hr 9 min 49 sec) 
Heartbeat CPU 0 instructions: 660000003 cycles: 2369412307 heartbeat IPC: 0.312553 cumulative IPC: 0.27816 (Simulation time: 3 hr 12 min 20 sec) 
Heartbeat CPU 0 instructions: 670000004 cycles: 2401567311 heartbeat IPC: 0.310994 cumulative IPC: 0.278599 (Simulation time: 3 hr 14 min 54 sec) 
Heartbeat CPU 0 instructions: 680000001 cycles: 2433208064 heartbeat IPC: 0.316048 cumulative IPC: 0.279086 (Simulation time: 3 hr 17 min 28 sec) 
Heartbeat CPU 0 instructions: 690000004 cycles: 2464873878 heartbeat IPC: 0.315798 cumulative IPC: 0.279558 (Simulation time: 3 hr 20 min 1 sec) 
Heartbeat CPU 0 instructions: 700000000 cycles: 2496678182 heartbeat IPC: 0.314423 cumulative IPC: 0.280002 (Simulation time: 3 hr 22 min 26 sec) 
Heartbeat CPU 0 instructions: 710000001 cycles: 2528685008 heartbeat IPC: 0.312433 cumulative IPC: 0.280413 (Simulation time: 3 hr 24 min 53 sec) 
Heartbeat CPU 0 instructions: 720000003 cycles: 2568233308 heartbeat IPC: 0.252855 cumulative IPC: 0.279988 (Simulation time: 3 hr 28 min 19 sec) 
Heartbeat CPU 0 instructions: 730000000 cycles: 2619780397 heartbeat IPC: 0.193997 cumulative IPC: 0.278296 (Simulation time: 3 hr 32 min 58 sec) 
Heartbeat CPU 0 instructions: 740000003 cycles: 2668958623 heartbeat IPC: 0.203342 cumulative IPC: 0.276915 (Simulation time: 3 hr 35 min 38 sec) 
Heartbeat CPU 0 instructions: 750000000 cycles: 2716618838 heartbeat IPC: 0.209819 cumulative IPC: 0.275738 (Simulation time: 3 hr 38 min 17 sec) 
Heartbeat CPU 0 instructions: 760000004 cycles: 2745197963 heartbeat IPC: 0.349906 cumulative IPC: 0.27651 (Simulation time: 3 hr 40 min 24 sec) 
Heartbeat CPU 0 instructions: 770000004 cycles: 2772828249 heartbeat IPC: 0.361922 cumulative IPC: 0.277361 (Simulation time: 3 hr 42 min 27 sec) 
Heartbeat CPU 0 instructions: 780000002 cycles: 2810989773 heartbeat IPC: 0.262044 cumulative IPC: 0.277153 (Simulation time: 3 hr 44 min 42 sec) 
Heartbeat CPU 0 instructions: 790000003 cycles: 2854810094 heartbeat IPC: 0.228205 cumulative IPC: 0.276402 (Simulation time: 3 hr 47 min 4 sec) 
Heartbeat CPU 0 instructions: 800000000 cycles: 2891380954 heartbeat IPC: 0.273442 cumulative IPC: 0.276364 (Simulation time: 3 hr 49 min 17 sec) 
Heartbeat CPU 0 instructions: 810000003 cycles: 2925088395 heartbeat IPC: 0.29667 cumulative IPC: 0.276598 (Simulation time: 3 hr 51 min 18 sec) 
Heartbeat CPU 0 instructions: 820000004 cycles: 2964263847 heartbeat IPC: 0.255262 cumulative IPC: 0.276316 (Simulation time: 3 hr 53 min 31 sec) 
Heartbeat CPU 0 instructions: 830000003 cycles: 3012098012 heartbeat IPC: 0.209056 cumulative IPC: 0.275248 (Simulation time: 3 hr 55 min 48 sec) 
Heartbeat CPU 0 instructions: 840000004 cycles: 3051267983 heartbeat IPC: 0.255298 cumulative IPC: 0.274992 (Simulation time: 3 hr 58 min 9 sec) 
Heartbeat CPU 0 instructions: 850000000 cycles: 3078027389 heartbeat IPC: 0.3737 cumulative IPC: 0.27585 (Simulation time: 4 hr 0 min 11 sec) 
Heartbeat CPU 0 instructions: 860000000 cycles: 3105031454 heartbeat IPC: 0.370315 cumulative IPC: 0.276672 (Simulation time: 4 hr 2 min 10 sec) 
Heartbeat CPU 0 instructions: 870000000 cycles: 3135973481 heartbeat IPC: 0.323185 cumulative IPC: 0.277131 (Simulation time: 4 hr 4 min 6 sec) 
Heartbeat CPU 0 instructions: 880000004 cycles: 3166980921 heartbeat IPC: 0.322503 cumulative IPC: 0.277575 (Simulation time: 4 hr 6 min 7 sec) 
Heartbeat CPU 0 instructions: 890000002 cycles: 3197868723 heartbeat IPC: 0.323752 cumulative IPC: 0.278021 (Simulation time: 4 hr 8 min 6 sec) 
Heartbeat CPU 0 instructions: 900000001 cycles: 3228405433 heartbeat IPC: 0.327475 cumulative IPC: 0.278489 (Simulation time: 4 hr 9 min 56 sec) 
Heartbeat CPU 0 instructions: 910000004 cycles: 3258844460 heartbeat IPC: 0.328526 cumulative IPC: 0.278956 (Simulation time: 4 hr 11 min 59 sec) 
Heartbeat CPU 0 instructions: 920000001 cycles: 3289870577 heartbeat IPC: 0.322309 cumulative IPC: 0.279365 (Simulation time: 4 hr 14 min 3 sec) 
Heartbeat CPU 0 instructions: 930000002 cycles: 3321123240 heartbeat IPC: 0.319973 cumulative IPC: 0.279747 (Simulation time: 4 hr 16 min 4 sec) 
Heartbeat CPU 0 instructions: 940000004 cycles: 3352896640 heartbeat IPC: 0.314729 cumulative IPC: 0.280079 (Simulation time: 4 hr 17 min 57 sec) 
Heartbeat CPU 0 instructions: 950000000 cycles: 3384719626 heartbeat IPC: 0.314238 cumulative IPC: 0.2804 (Simulation time: 4 hr 19 min 52 sec) 
Heartbeat CPU 0 instructions: 960000000 cycles: 3415793723 heartbeat IPC: 0.321811 cumulative IPC: 0.280777 (Simulation time: 4 hr 21 min 47 sec) 
Heartbeat CPU 0 instructions: 970000000 cycles: 3446752699 heartbeat IPC: 0.323008 cumulative IPC: 0.281156 (Simulation time: 4 hr 23 min 41 sec) 
Heartbeat CPU 0 instructions: 980000004 cycles: 3485161223 heartbeat IPC: 0.260359 cumulative IPC: 0.280927 (Simulation time: 4 hr 25 min 45 sec) 
Heartbeat CPU 0 instructions: 990000000 cycles: 3532264408 heartbeat IPC: 0.2123 cumulative IPC: 0.280012 (Simulation time: 4 hr 27 min 50 sec) 
Heartbeat CPU 0 instructions: 1000000002 cycles: 3570068509 heartbeat IPC: 0.264522 cumulative IPC: 0.279848 (Simulation time: 4 hr 29 min 53 sec) 
Finished CPU 0 instructions: 1000000004 cycles: 3572480713 cumulative IPC: 0.279918 (Simulation time: 4 hr 30 min 6 sec) 

ChampSim completed all CPUs

Region of Interest Statistics

CPU 0 cumulative IPC: 0.279918 instructions: 1000000004 cycles: 3572480713
cpu0_DTLB TOTAL     ACCESS:  165850186  HIT:  165462728  MISS:     387458
cpu0_DTLB LOAD      ACCESS:  152225885  HIT:  151895017  MISS:     330868
cpu0_DTLB RFO       ACCESS:   13624301  HIT:   13567711  MISS:      56590
cpu0_DTLB PREFETCH  ACCESS:          0  HIT:          0  MISS:          0
cpu0_DTLB WRITEBACK ACCESS:          0  HIT:          0  MISS:          0
cpu0_DTLB TRANSLATION ACCESS:          0  HIT:          0  MISS:          0
cpu0_DTLB PREFETCH  REQUESTED:          0  ISSUED:          0  USEFUL:          0  USELESS:          0
cpu0_DTLB AVERAGE MISS LATENCY: 20.3515 cycles
cpu0_ITLB TOTAL     ACCESS:   56004749  HIT:   56004745  MISS:          4
cpu0_ITLB LOAD      ACCESS:   56004749  HIT:   56004745  MISS:          4
cpu0_ITLB RFO       ACCESS:          0  HIT:          0  MISS:          0
cpu0_ITLB PREFETCH  ACCESS:          0  HIT:          0  MISS:          0
cpu0_ITLB WRITEBACK ACCESS:          0  HIT:          0  MISS:          0
cpu0_ITLB TRANSLATION ACCESS:          0  HIT:          0  MISS:          0
cpu0_ITLB PREFETCH  REQUESTED:          0  ISSUED:          0  USEFUL:          0  USELESS:          0
cpu0_ITLB AVERAGE MISS LATENCY: 301.75 cycles
cpu0_L1I TOTAL     ACCESS:        114  HIT:         64  MISS:         50
cpu0_L1I LOAD      ACCESS:        114  HIT:         64  MISS:         50
cpu0_L1I RFO       ACCESS:          0  HIT:          0  MISS:          0
cpu0_L1I PREFETCH  ACCESS:          0  HIT:          0  MISS:          0
cpu0_L1I WRITEBACK ACCESS:          0  HIT:          0  MISS:          0
cpu0_L1I TRANSLATION ACCESS:          0  HIT:          0  MISS:          0
cpu0_L1I PREFETCH  REQUESTED:          0  ISSUED:          0  USEFUL:          0  USELESS:          0
cpu0_L1I AVERAGE MISS LATENCY: 497.9 cycles
cpu0_STLB TOTAL     ACCESS:     387462  HIT:          0  MISS:     387462
cpu0_STLB LOAD      ACCESS:     330872  HIT:          0  MISS:     330872
cpu0_STLB RFO       ACCESS:      56590  HIT:          0  MISS:      56590
cpu0_STLB PREFETCH  ACCESS:          0  HIT:          0  MISS:          0
cpu0_STLB WRITEBACK ACCESS:          0  HIT:          0  MISS:          0
cpu0_STLB TRANSLATION ACCESS:          0  HIT:          0  MISS:          0
cpu0_STLB PREFETCH  REQUESTED:          0  ISSUED:          0  USEFUL:          0  USELESS:          0
cpu0_STLB AVERAGE MISS LATENCY: 11.3544 cycles
cpu0_L1D TOTAL     ACCESS:  188471233  HIT:  163292006  MISS:   25179227
cpu0_L1D LOAD      ACCESS:   97821124  HIT:   76872830  MISS:   20948294
cpu0_L1D RFO       ACCESS:   21701759  HIT:   21701578  MISS:        181
cpu0_L1D PREFETCH  ACCESS:   68560888  HIT:   64330326  MISS:    4230562
cpu0_L1D WRITEBACK ACCESS:          0  HIT:          0  MISS:          0
cpu0_L1D TRANSLATION ACCESS:     387462  HIT:     387272  MISS:        190
cpu0_L1D PREFETCH  REQUESTED:  120147033  ISSUED:  119422066  USEFUL:   23477265  USELESS:     344117
cpu0_L1D AVERAGE MISS LATENCY: 101.115 cycles
cpu0_L2C TOTAL     ACCESS:   83264046  HIT:   56536387  MISS:   26727659
cpu0_L2C LOAD      ACCESS:    1357520  HIT:          4  MISS:    1357516
cpu0_L2C RFO       ACCESS:        181  HIT:          0  MISS:        181
cpu0_L2C PREFETCH  ACCESS:   73237336  HIT:   47867662  MISS:   25369674
cpu0_L2C WRITEBACK ACCESS:    8668819  HIT:    8668721  MISS:         98
cpu0_L2C TRANSLATION ACCESS:        190  HIT:          0  MISS:        190
cpu0_L2C PREFETCH  REQUESTED:   63773614  ISSUED:   52001691  USEFUL:    1143587  USELESS:     404900
cpu0_L2C AVERAGE MISS LATENCY: 481.186 cycles
LLC TOTAL     ACCESS:   35398442  HIT:    8672092  MISS:   26726350
LLC LOAD      ACCESS:    1357516  HIT:         96  MISS:    1357420
LLC RFO       ACCESS:        181  HIT:          0  MISS:        181
LLC PREFETCH  ACCESS:   25371227  HIT:       2668  MISS:   25368559
LLC WRITEBACK ACCESS:    8669328  HIT:    8669328  MISS:          0
LLC TRANSLATION ACCESS:        190  HIT:          0  MISS:        190
LLC PREFETCH  REQUESTED:          0  ISSUED:          0  USEFUL:          0  USELESS:          0
LLC AVERAGE MISS LATENCY: 454.519 cycles

DRAM Statistics
 CHANNEL 0
 RQ ROW_BUFFER_HIT:    4907216  ROW_BUFFER_MISS:   21819130
 DBUS AVG_CONGESTED_CYCLE:    3.94778
 WQ ROW_BUFFER_HIT:     423748  ROW_BUFFER_MISS:    8247187  FULL:          0


CPU 0 Branch Prediction Accuracy: 96.9565% MPKI: 5.58931 Average ROB Occupancy at Mispredict: 45.8293
Branch type MPKI
BRANCH_DIRECT_JUMP: 1e-05
BRANCH_INDIRECT: 1e-05
BRANCH_CONDITIONAL: 5.5892
BRANCH_DIRECT_CALL: 4.7e-05
BRANCH_INDIRECT_CALL: 0
BRANCH_RETURN: 4.7e-05

