
*** ChampSim Multicore Out-of-Order Simulator ***

Warmup Instructions: 0
Simulation Instructions: 1000000000
Number of CPUs: 1
Off-chip DRAM Size: 4 GiB Channels: 1 Width: 64-bit Data Rate: 3200 MT/s

VirtualMemory physical capacity: 8588881920 num_ppages: 2096895
VirtualMemory page size: 4096 log2_page_size: 12

CPU 0 runs tracer/pin/traces/spec2k6/429.mcf-192B.champsimtrace.xz
Basic BTB sets: 1024 ways: 8 indirect buffer size: 4096 RAS size: 64
cpu0_L1D next line prefetcher
cpu0_L2C IP-based stride prefetcher
WARNING: The extended signature CACHE::prefetch_line(ip, base_addr, pf_addr, fill_this_level, prefetch_metadata) is deprecated.
WARNING: Use CACHE::prefetch_line(pf_addr, fill_this_level, prefetch_metadata) instead.

Warmup complete CPU 0 instructions: 5 cycles: 93 (Simulation time: 0 hr 0 min 0 sec) 

Heartbeat CPU 0 instructions: 10000001 cycles: 189261594 heartbeat IPC: 0.0528369 cumulative IPC: 0.0528369 (Simulation time: 0 hr 5 min 19 sec) 
Heartbeat CPU 0 instructions: 20000000 cycles: 375884964 heartbeat IPC: 0.0535839 cumulative IPC: 0.0532078 (Simulation time: 0 hr 10 min 34 sec) 
Heartbeat CPU 0 instructions: 30000004 cycles: 562543853 heartbeat IPC: 0.0535737 cumulative IPC: 0.0533292 (Simulation time: 0 hr 15 min 48 sec) 
Heartbeat CPU 0 instructions: 40000000 cycles: 749660032 heartbeat IPC: 0.0534427 cumulative IPC: 0.0533575 (Simulation time: 0 hr 21 min 1 sec) 
Heartbeat CPU 0 instructions: 50000002 cycles: 934548365 heartbeat IPC: 0.0540867 cumulative IPC: 0.0535018 (Simulation time: 0 hr 26 min 10 sec) 
Heartbeat CPU 0 instructions: 60000000 cycles: 1120319316 heartbeat IPC: 0.0538297 cumulative IPC: 0.0535562 (Simulation time: 0 hr 31 min 24 sec) 
Heartbeat CPU 0 instructions: 70000000 cycles: 1308643422 heartbeat IPC: 0.0530999 cumulative IPC: 0.0534905 (Simulation time: 0 hr 36 min 36 sec) 
Heartbeat CPU 0 instructions: 80000004 cycles: 1515682002 heartbeat IPC: 0.0483002 cumulative IPC: 0.0527815 (Simulation time: 0 hr 42 min 15 sec) 
Heartbeat CPU 0 instructions: 90000000 cycles: 1701703823 heartbeat IPC: 0.0537571 cumulative IPC: 0.0528882 (Simulation time: 0 hr 47 min 27 sec) 
Heartbeat CPU 0 instructions: 100000000 cycles: 1888893223 heartbeat IPC: 0.0534218 cumulative IPC: 0.0529411 (Simulation time: 0 hr 52 min 47 sec) 
Heartbeat CPU 0 instructions: 110000000 cycles: 2077985375 heartbeat IPC: 0.0528843 cumulative IPC: 0.0529359 (Simulation time: 0 hr 58 min 5 sec) 
Heartbeat CPU 0 instructions: 120000002 cycles: 2267651620 heartbeat IPC: 0.0527242 cumulative IPC: 0.0529182 (Simulation time: 1 hr 3 min 24 sec) 
Heartbeat CPU 0 instructions: 130000001 cycles: 2455054625 heartbeat IPC: 0.0533609 cumulative IPC: 0.052952 (Simulation time: 1 hr 8 min 42 sec) 
Heartbeat CPU 0 instructions: 140000004 cycles: 2642969590 heartbeat IPC: 0.0532156 cumulative IPC: 0.0529707 (Simulation time: 1 hr 14 min 2 sec) 
Heartbeat CPU 0 instructions: 150000000 cycles: 2831544328 heartbeat IPC: 0.0530294 cumulative IPC: 0.0529746 (Simulation time: 1 hr 19 min 21 sec) 
Heartbeat CPU 0 instructions: 160000000 cycles: 3024632754 heartbeat IPC: 0.0517897 cumulative IPC: 0.052899 (Simulation time: 1 hr 24 min 42 sec) 
Heartbeat CPU 0 instructions: 170000000 cycles: 3214845392 heartbeat IPC: 0.0525727 cumulative IPC: 0.0528797 (Simulation time: 1 hr 30 min 3 sec) 
Heartbeat CPU 0 instructions: 180000001 cycles: 3404055128 heartbeat IPC: 0.0528514 cumulative IPC: 0.0528781 (Simulation time: 1 hr 35 min 25 sec) 
Heartbeat CPU 0 instructions: 190000001 cycles: 3593949079 heartbeat IPC: 0.052661 cumulative IPC: 0.0528666 (Simulation time: 1 hr 40 min 43 sec) 
Heartbeat CPU 0 instructions: 200000001 cycles: 3784058716 heartbeat IPC: 0.0526012 cumulative IPC: 0.0528533 (Simulation time: 1 hr 46 min 6 sec) 
Heartbeat CPU 0 instructions: 210000004 cycles: 3972841820 heartbeat IPC: 0.0529709 cumulative IPC: 0.0528589 (Simulation time: 1 hr 51 min 32 sec) 
Heartbeat CPU 0 instructions: 220000003 cycles: 4161540278 heartbeat IPC: 0.0529946 cumulative IPC: 0.052865 (Simulation time: 1 hr 57 min 1 sec) 
Heartbeat CPU 0 instructions: 230000001 cycles: 4350353012 heartbeat IPC: 0.0529625 cumulative IPC: 0.0528693 (Simulation time: 2 hr 2 min 45 sec) 
Heartbeat CPU 0 instructions: 240000001 cycles: 4537477606 heartbeat IPC: 0.0534403 cumulative IPC: 0.0528928 (Simulation time: 2 hr 8 min 34 sec) 
Heartbeat CPU 0 instructions: 250000004 cycles: 4726688557 heartbeat IPC: 0.0528511 cumulative IPC: 0.0528912 (Simulation time: 2 hr 14 min 33 sec) 
Heartbeat CPU 0 instructions: 260000000 cycles: 4916943282 heartbeat IPC: 0.0525611 cumulative IPC: 0.0528784 (Simulation time: 2 hr 21 min 50 sec) 
Heartbeat CPU 0 instructions: 270000001 cycles: 5110987963 heartbeat IPC: 0.0515345 cumulative IPC: 0.0528274 (Simulation time: 2 hr 29 min 12 sec) 
Heartbeat CPU 0 instructions: 280000002 cycles: 5300767168 heartbeat IPC: 0.0526928 cumulative IPC: 0.0528225 (Simulation time: 2 hr 37 min 8 sec) 
Heartbeat CPU 0 instructions: 290000000 cycles: 5490881144 heartbeat IPC: 0.0526 cumulative IPC: 0.0528148 (Simulation time: 2 hr 45 min 13 sec) 
Heartbeat CPU 0 instructions: 300000001 cycles: 5679657262 heartbeat IPC: 0.0529728 cumulative IPC: 0.0528201 (Simulation time: 2 hr 53 min 20 sec) 
Heartbeat CPU 0 instructions: 310000000 cycles: 5869764576 heartbeat IPC: 0.0526019 cumulative IPC: 0.052813 (Simulation time: 3 hr 1 min 16 sec) 
Heartbeat CPU 0 instructions: 320000004 cycles: 6060003593 heartbeat IPC: 0.0525655 cumulative IPC: 0.0528052 (Simulation time: 3 hr 8 min 18 sec) 
Heartbeat CPU 0 instructions: 330000002 cycles: 6250169198 heartbeat IPC: 0.0525857 cumulative IPC: 0.0527986 (Simulation time: 3 hr 15 min 33 sec) 
Heartbeat CPU 0 instructions: 340000002 cycles: 6439338575 heartbeat IPC: 0.0528627 cumulative IPC: 0.0528005 (Simulation time: 3 hr 22 min 26 sec) 
Heartbeat CPU 0 instructions: 350000000 cycles: 6628891274 heartbeat IPC: 0.0527558 cumulative IPC: 0.0527992 (Simulation time: 3 hr 29 min 44 sec) 
Heartbeat CPU 0 instructions: 360000000 cycles: 6817323582 heartbeat IPC: 0.0530695 cumulative IPC: 0.0528066 (Simulation time: 3 hr 35 min 55 sec) 
Heartbeat CPU 0 instructions: 370000003 cycles: 7007536888 heartbeat IPC: 0.0525726 cumulative IPC: 0.0528003 (Simulation time: 3 hr 42 min 18 sec) 
Heartbeat CPU 0 instructions: 380000001 cycles: 7198178827 heartbeat IPC: 0.0524543 cumulative IPC: 0.0527911 (Simulation time: 3 hr 48 min 33 sec) 
Heartbeat CPU 0 instructions: 390000000 cycles: 7388756035 heartbeat IPC: 0.0524722 cumulative IPC: 0.0527829 (Simulation time: 3 hr 55 min 1 sec) 
Heartbeat CPU 0 instructions: 400000003 cycles: 7578475542 heartbeat IPC: 0.0527094 cumulative IPC: 0.0527811 (Simulation time: 4 hr 0 min 49 sec) 
Heartbeat CPU 0 instructions: 410000001 cycles: 7767083159 heartbeat IPC: 0.0530201 cumulative IPC: 0.0527869 (Simulation time: 4 hr 6 min 15 sec) 
Heartbeat CPU 0 instructions: 420000004 cycles: 7955497413 heartbeat IPC: 0.0530746 cumulative IPC: 0.0527937 (Simulation time: 4 hr 11 min 44 sec) 
Heartbeat CPU 0 instructions: 430000000 cycles: 8144519697 heartbeat IPC: 0.0529038 cumulative IPC: 0.0527962 (Simulation time: 4 hr 17 min 13 sec) 
Heartbeat CPU 0 instructions: 440000002 cycles: 8333492515 heartbeat IPC: 0.0529177 cumulative IPC: 0.052799 (Simulation time: 4 hr 22 min 43 sec) 
Heartbeat CPU 0 instructions: 450000004 cycles: 8524203914 heartbeat IPC: 0.0524353 cumulative IPC: 0.0527909 (Simulation time: 4 hr 28 min 12 sec) 
Heartbeat CPU 0 instructions: 460000002 cycles: 8714448637 heartbeat IPC: 0.0525639 cumulative IPC: 0.0527859 (Simulation time: 4 hr 33 min 37 sec) 
Heartbeat CPU 0 instructions: 470000001 cycles: 8903820150 heartbeat IPC: 0.0528062 cumulative IPC: 0.0527863 (Simulation time: 4 hr 39 min 14 sec) 
Heartbeat CPU 0 instructions: 480000000 cycles: 9093293541 heartbeat IPC: 0.0527779 cumulative IPC: 0.0527862 (Simulation time: 4 hr 44 min 41 sec) 
Heartbeat CPU 0 instructions: 490000000 cycles: 9283456770 heartbeat IPC: 0.0525864 cumulative IPC: 0.0527821 (Simulation time: 4 hr 50 min 5 sec) 
Heartbeat CPU 0 instructions: 500000000 cycles: 9473085586 heartbeat IPC: 0.0527346 cumulative IPC: 0.0527811 (Simulation time: 4 hr 55 min 32 sec) 
Heartbeat CPU 0 instructions: 510000000 cycles: 9662239498 heartbeat IPC: 0.052867 cumulative IPC: 0.0527828 (Simulation time: 5 hr 0 min 56 sec) 
Heartbeat CPU 0 instructions: 520000000 cycles: 9850875079 heartbeat IPC: 0.0530123 cumulative IPC: 0.0527872 (Simulation time: 5 hr 6 min 21 sec) 
Heartbeat CPU 0 instructions: 530000002 cycles: 10039826641 heartbeat IPC: 0.0529236 cumulative IPC: 0.0527898 (Simulation time: 5 hr 11 min 45 sec) 
Heartbeat CPU 0 instructions: 540000000 cycles: 10228036332 heartbeat IPC: 0.0531322 cumulative IPC: 0.0527961 (Simulation time: 5 hr 17 min 15 sec) 
Heartbeat CPU 0 instructions: 550000003 cycles: 10415724541 heartbeat IPC: 0.0532799 cumulative IPC: 0.0528048 (Simulation time: 5 hr 22 min 38 sec) 
Heartbeat CPU 0 instructions: 560000000 cycles: 10602898938 heartbeat IPC: 0.0534261 cumulative IPC: 0.0528157 (Simulation time: 5 hr 27 min 58 sec) 
Heartbeat CPU 0 instructions: 570000003 cycles: 10790585119 heartbeat IPC: 0.0532804 cumulative IPC: 0.0528238 (Simulation time: 5 hr 33 min 27 sec) 
Heartbeat CPU 0 instructions: 580000001 cycles: 10977125773 heartbeat IPC: 0.0536076 cumulative IPC: 0.0528371 (Simulation time: 5 hr 39 min 5 sec) 
Heartbeat CPU 0 instructions: 590000004 cycles: 11162431626 heartbeat IPC: 0.0539649 cumulative IPC: 0.0528559 (Simulation time: 5 hr 44 min 32 sec) 
Heartbeat CPU 0 instructions: 600000000 cycles: 11350661972 heartbeat IPC: 0.0531264 cumulative IPC: 0.0528604 (Simulation time: 5 hr 49 min 53 sec) 
Heartbeat CPU 0 instructions: 610000001 cycles: 11539039307 heartbeat IPC: 0.0530849 cumulative IPC: 0.052864 (Simulation time: 5 hr 55 min 17 sec) 
Heartbeat CPU 0 instructions: 620000002 cycles: 11726465182 heartbeat IPC: 0.0533544 cumulative IPC: 0.0528719 (Simulation time: 6 hr 1 min 4 sec) 
Heartbeat CPU 0 instructions: 630000003 cycles: 11913929405 heartbeat IPC: 0.0533435 cumulative IPC: 0.0528793 (Simulation time: 6 hr 6 min 26 sec) 
Heartbeat CPU 0 instructions: 640000001 cycles: 12103080691 heartbeat IPC: 0.0528677 cumulative IPC: 0.0528791 (Simulation time: 6 hr 11 min 51 sec) 
Heartbeat CPU 0 instructions: 650000000 cycles: 12292173113 heartbeat IPC: 0.0528842 cumulative IPC: 0.0528792 (Simulation time: 6 hr 17 min 19 sec) 
Heartbeat CPU 0 instructions: 660000001 cycles: 12479062468 heartbeat IPC: 0.0535076 cumulative IPC: 0.0528886 (Simulation time: 6 hr 22 min 50 sec) 
Heartbeat CPU 0 instructions: 670000003 cycles: 12666647193 heartbeat IPC: 0.0533093 cumulative IPC: 0.0528948 (Simulation time: 6 hr 28 min 20 sec) 
Heartbeat CPU 0 instructions: 680000004 cycles: 12855192009 heartbeat IPC: 0.0530378 cumulative IPC: 0.0528969 (Simulation time: 6 hr 33 min 51 sec) 
Heartbeat CPU 0 instructions: 690000000 cycles: 13045246752 heartbeat IPC: 0.0526164 cumulative IPC: 0.0528928 (Simulation time: 6 hr 39 min 22 sec) 
Heartbeat CPU 0 instructions: 700000004 cycles: 13234841859 heartbeat IPC: 0.052744 cumulative IPC: 0.0528907 (Simulation time: 6 hr 45 min 11 sec) 
Heartbeat CPU 0 instructions: 710000000 cycles: 13423653127 heartbeat IPC: 0.0529629 cumulative IPC: 0.0528917 (Simulation time: 6 hr 50 min 59 sec) 
Heartbeat CPU 0 instructions: 720000003 cycles: 13614064019 heartbeat IPC: 0.052518 cumulative IPC: 0.0528865 (Simulation time: 6 hr 56 min 43 sec) 
Heartbeat CPU 0 instructions: 730000000 cycles: 13803258538 heartbeat IPC: 0.0528556 cumulative IPC: 0.0528861 (Simulation time: 7 hr 2 min 1 sec) 
Heartbeat CPU 0 instructions: 740000001 cycles: 13991459872 heartbeat IPC: 0.0531346 cumulative IPC: 0.0528894 (Simulation time: 7 hr 7 min 20 sec) 
Heartbeat CPU 0 instructions: 750000001 cycles: 14179891372 heartbeat IPC: 0.0530697 cumulative IPC: 0.0528918 (Simulation time: 7 hr 12 min 39 sec) 
Heartbeat CPU 0 instructions: 760000003 cycles: 14367973976 heartbeat IPC: 0.0531681 cumulative IPC: 0.0528954 (Simulation time: 7 hr 17 min 56 sec) 
Heartbeat CPU 0 instructions: 770000001 cycles: 14555362895 heartbeat IPC: 0.0533649 cumulative IPC: 0.0529015 (Simulation time: 7 hr 23 min 15 sec) 
Heartbeat CPU 0 instructions: 780000001 cycles: 14744548217 heartbeat IPC: 0.0528582 cumulative IPC: 0.0529009 (Simulation time: 7 hr 28 min 36 sec) 
Heartbeat CPU 0 instructions: 790000000 cycles: 14934220841 heartbeat IPC: 0.0527224 cumulative IPC: 0.0528986 (Simulation time: 7 hr 33 min 57 sec) 
Heartbeat CPU 0 instructions: 800000001 cycles: 15124667663 heartbeat IPC: 0.0525081 cumulative IPC: 0.0528937 (Simulation time: 7 hr 39 min 19 sec) 
Heartbeat CPU 0 instructions: 810000004 cycles: 15313910816 heartbeat IPC: 0.0528421 cumulative IPC: 0.0528931 (Simulation time: 7 hr 44 min 37 sec) 
Heartbeat CPU 0 instructions: 820000000 cycles: 15503341514 heartbeat IPC: 0.0527897 cumulative IPC: 0.0528918 (Simulation time: 7 hr 49 min 56 sec) 
Heartbeat CPU 0 instructions: 830000000 cycles: 15691800226 heartbeat IPC: 0.053062 cumulative IPC: 0.0528939 (Simulation time: 7 hr 55 min 20 sec) 
Heartbeat CPU 0 instructions: 840000003 cycles: 15881615812 heartbeat IPC: 0.0526827 cumulative IPC: 0.0528913 (Simulation time: 8 hr 0 min 46 sec) 
Heartbeat CPU 0 instructions: 850000001 cycles: 16071528460 heartbeat IPC: 0.0526558 cumulative IPC: 0.0528886 (Simulation time: 8 hr 6 min 10 sec) 
Heartbeat CPU 0 instructions: 860000004 cycles: 16260993086 heartbeat IPC: 0.0527803 cumulative IPC: 0.0528873 (Simulation time: 8 hr 11 min 33 sec) 
Heartbeat CPU 0 instructions: 870000003 cycles: 16449893979 heartbeat IPC: 0.0529378 cumulative IPC: 0.0528879 (Simulation time: 8 hr 17 min 2 sec) 
Heartbeat CPU 0 instructions: 880000002 cycles: 16639069854 heartbeat IPC: 0.0528609 cumulative IPC: 0.0528876 (Simulation time: 8 hr 22 min 31 sec) 
Heartbeat CPU 0 instructions: 890000001 cycles: 16827265380 heartbeat IPC: 0.0531362 cumulative IPC: 0.0528904 (Simulation time: 8 hr 27 min 56 sec) 
Heartbeat CPU 0 instructions: 900000000 cycles: 17017346473 heartbeat IPC: 0.0526091 cumulative IPC: 0.0528872 (Simulation time: 8 hr 33 min 18 sec) 
Heartbeat CPU 0 instructions: 910000000 cycles: 17207604574 heartbeat IPC: 0.0525602 cumulative IPC: 0.0528836 (Simulation time: 8 hr 38 min 38 sec) 
Heartbeat CPU 0 instructions: 920000001 cycles: 17397819497 heartbeat IPC: 0.0525721 cumulative IPC: 0.0528802 (Simulation time: 8 hr 43 min 57 sec) 
Heartbeat CPU 0 instructions: 930000000 cycles: 17586874372 heartbeat IPC: 0.0528947 cumulative IPC: 0.0528803 (Simulation time: 8 hr 49 min 16 sec) 
Heartbeat CPU 0 instructions: 940000001 cycles: 17774836084 heartbeat IPC: 0.0532023 cumulative IPC: 0.0528838 (Simulation time: 8 hr 54 min 36 sec) 
Heartbeat CPU 0 instructions: 950000004 cycles: 17963073060 heartbeat IPC: 0.0531245 cumulative IPC: 0.0528863 (Simulation time: 8 hr 59 min 58 sec) 
Heartbeat CPU 0 instructions: 960000000 cycles: 18151540037 heartbeat IPC: 0.0530597 cumulative IPC: 0.0528881 (Simulation time: 9 hr 5 min 20 sec) 
Heartbeat CPU 0 instructions: 970000000 cycles: 18340410609 heartbeat IPC: 0.0529463 cumulative IPC: 0.0528887 (Simulation time: 9 hr 10 min 44 sec) 
Heartbeat CPU 0 instructions: 980000000 cycles: 18530421271 heartbeat IPC: 0.0526286 cumulative IPC: 0.052886 (Simulation time: 9 hr 16 min 10 sec) 
Heartbeat CPU 0 instructions: 990000003 cycles: 18720130801 heartbeat IPC: 0.0527122 cumulative IPC: 0.0528842 (Simulation time: 9 hr 21 min 28 sec) 
Heartbeat CPU 0 instructions: 1000000004 cycles: 18908758160 heartbeat IPC: 0.0530146 cumulative IPC: 0.0528855 (Simulation time: 9 hr 26 min 47 sec) 
Finished CPU 0 instructions: 1000000004 cycles: 18908758068 cumulative IPC: 0.0528855 (Simulation time: 9 hr 26 min 47 sec) 

ChampSim completed all CPUs

Region of Interest Statistics

CPU 0 cumulative IPC: 0.0528855 instructions: 1000000004 cycles: 18908758068
cpu0_DTLB TOTAL     ACCESS:  206613071  HIT:   59354058  MISS:  147259013
cpu0_DTLB LOAD      ACCESS:  206413505  HIT:   59189246  MISS:  147224259
cpu0_DTLB RFO       ACCESS:     199566  HIT:     164812  MISS:      34754
cpu0_DTLB PREFETCH  ACCESS:          0  HIT:          0  MISS:          0
cpu0_DTLB WRITEBACK ACCESS:          0  HIT:          0  MISS:          0
cpu0_DTLB TRANSLATION ACCESS:          0  HIT:          0  MISS:          0
cpu0_DTLB PREFETCH  REQUESTED:          0  ISSUED:          0  USEFUL:          0  USELESS:          0
cpu0_DTLB AVERAGE MISS LATENCY: 10.3823 cycles
cpu0_ITLB TOTAL     ACCESS:  102275592  HIT:  102275590  MISS:          2
cpu0_ITLB LOAD      ACCESS:  102275592  HIT:  102275590  MISS:          2
cpu0_ITLB RFO       ACCESS:          0  HIT:          0  MISS:          0
cpu0_ITLB PREFETCH  ACCESS:          0  HIT:          0  MISS:          0
cpu0_ITLB WRITEBACK ACCESS:          0  HIT:          0  MISS:          0
cpu0_ITLB TRANSLATION ACCESS:          0  HIT:          0  MISS:          0
cpu0_ITLB PREFETCH  REQUESTED:          0  ISSUED:          0  USEFUL:          0  USELESS:          0
cpu0_ITLB AVERAGE MISS LATENCY: 216 cycles
cpu0_L1I TOTAL     ACCESS:         98  HIT:         61  MISS:         37
cpu0_L1I LOAD      ACCESS:         98  HIT:         61  MISS:         37
cpu0_L1I RFO       ACCESS:          0  HIT:          0  MISS:          0
cpu0_L1I PREFETCH  ACCESS:          0  HIT:          0  MISS:          0
cpu0_L1I WRITEBACK ACCESS:          0  HIT:          0  MISS:          0
cpu0_L1I TRANSLATION ACCESS:          0  HIT:          0  MISS:          0
cpu0_L1I PREFETCH  REQUESTED:          0  ISSUED:          0  USEFUL:          0  USELESS:          0
cpu0_L1I AVERAGE MISS LATENCY: 356.892 cycles
cpu0_STLB TOTAL     ACCESS:  147259015  HIT:  144668099  MISS:    2590916
cpu0_STLB LOAD      ACCESS:  147224261  HIT:  144634777  MISS:    2589484
cpu0_STLB RFO       ACCESS:      34754  HIT:      33322  MISS:       1432
cpu0_STLB PREFETCH  ACCESS:          0  HIT:          0  MISS:          0
cpu0_STLB WRITEBACK ACCESS:          0  HIT:          0  MISS:          0
cpu0_STLB TRANSLATION ACCESS:          0  HIT:          0  MISS:          0
cpu0_STLB PREFETCH  REQUESTED:          0  ISSUED:          0  USEFUL:          0  USELESS:          0
cpu0_STLB AVERAGE MISS LATENCY: 78.1013 cycles
cpu0_L1D TOTAL     ACCESS:  351571838  HIT:   62777397  MISS:  288794441
cpu0_L1D LOAD      ACCESS:  207146018  HIT:   53507286  MISS:  153638732
cpu0_L1D RFO       ACCESS:     265525  HIT:     254494  MISS:      11031
cpu0_L1D PREFETCH  ACCESS:  141578175  HIT:    7399192  MISS:  134178983
cpu0_L1D WRITEBACK ACCESS:          0  HIT:          0  MISS:          0
cpu0_L1D TRANSLATION ACCESS:    2582120  HIT:    1616425  MISS:     965695
cpu0_L1D PREFETCH  REQUESTED:  207163686  ISSUED:  173450603  USEFUL:    7048229  USELESS:  127140533
cpu0_L1D AVERAGE MISS LATENCY: 341.949 cycles
cpu0_L2C TOTAL     ACCESS:  288948271  HIT:   82637441  MISS:  206310830
cpu0_L2C LOAD      ACCESS:  153629051  HIT:   59904318  MISS:   93724733
cpu0_L2C RFO       ACCESS:      10749  HIT:       1744  MISS:       9005
cpu0_L2C PREFETCH  ACCESS:  134197568  HIT:   22447560  MISS:  111750008
cpu0_L2C WRITEBACK ACCESS:     145208  HIT:     145207  MISS:          1
cpu0_L2C TRANSLATION ACCESS:     965695  HIT:     138612  MISS:     827083
cpu0_L2C PREFETCH  REQUESTED:      12353  ISSUED:      12189  USEFUL:        409  USELESS:       7655
cpu0_L2C AVERAGE MISS LATENCY: 460.463 cycles
LLC TOTAL     ACCESS:  206453399  HIT:  107143809  MISS:   99309590
LLC LOAD      ACCESS:   93724732  HIT:   67373267  MISS:   26351465
LLC RFO       ACCESS:       9005  HIT:       2912  MISS:       6093
LLC PREFETCH  ACCESS:  111751752  HIT:   38852849  MISS:   72898903
LLC WRITEBACK ACCESS:     140827  HIT:     140820  MISS:          7
LLC TRANSLATION ACCESS:     827083  HIT:     773961  MISS:      53122
LLC PREFETCH  REQUESTED:          0  ISSUED:          0  USEFUL:          0  USELESS:          0
LLC AVERAGE MISS LATENCY: 900.52 cycles

DRAM Statistics
 CHANNEL 0
 RQ ROW_BUFFER_HIT:      73925  ROW_BUFFER_MISS:   99221244
 DBUS AVG_CONGESTED_CYCLE:     3.9578
 WQ ROW_BUFFER_HIT:       7540  ROW_BUFFER_MISS:     117478  FULL:          0


CPU 0 Branch Prediction Accuracy: 91.8245% MPKI: 19.6538 Average ROB Occupancy at Mispredict: 29.8497
Branch type MPKI
BRANCH_DIRECT_JUMP: 2e-05
BRANCH_INDIRECT: 0
BRANCH_CONDITIONAL: 19.6538
BRANCH_DIRECT_CALL: 6e-06
BRANCH_INDIRECT_CALL: 0
BRANCH_RETURN: 7e-06

