
*** ChampSim Multicore Out-of-Order Simulator ***

Warmup Instructions: 1000000
Simulation Instructions: 1000000000
Number of CPUs: 1
Off-chip DRAM Size: 4 GiB Channels: 1 Width: 64-bit Data Rate: 3200 MT/s

VirtualMemory physical capacity: 8588881920 num_ppages: 2096895
VirtualMemory page size: 4096 log2_page_size: 12

CPU 0 runs tracer/pin/traces/spec2k6/473.astar-153B.champsimtrace.xz
Basic BTB sets: 1024 ways: 8 indirect buffer size: 4096 RAS size: 64
cpu0_L1D next line prefetcher
cpu0_L2C IP-based stride prefetcher
WARNING: The extended signature CACHE::prefetch_line(ip, base_addr, pf_addr, fill_this_level, prefetch_metadata) is deprecated.
WARNING: Use CACHE::prefetch_line(pf_addr, fill_this_level, prefetch_metadata) instead.

Warmup complete CPU 0 instructions: 1000004 cycles: 250082 (Simulation time: 0 hr 0 min 4 sec) 

Heartbeat CPU 0 instructions: 10000004 cycles: 11891932 heartbeat IPC: 0.840907 cumulative IPC: 0.773073 (Simulation time: 0 hr 1 min 3 sec) 
Heartbeat CPU 0 instructions: 20000000 cycles: 22602296 heartbeat IPC: 0.933675 cumulative IPC: 0.850028 (Simulation time: 0 hr 2 min 6 sec) 
Heartbeat CPU 0 instructions: 30000000 cycles: 33192113 heartbeat IPC: 0.944303 cumulative IPC: 0.880334 (Simulation time: 0 hr 3 min 8 sec) 
Heartbeat CPU 0 instructions: 40000000 cycles: 43797479 heartbeat IPC: 0.942919 cumulative IPC: 0.895576 (Simulation time: 0 hr 4 min 8 sec) 
Heartbeat CPU 0 instructions: 50000000 cycles: 54177276 heartbeat IPC: 0.96341 cumulative IPC: 0.908632 (Simulation time: 0 hr 5 min 9 sec) 
Heartbeat CPU 0 instructions: 60000001 cycles: 64144274 heartbeat IPC: 1.00331 cumulative IPC: 0.923402 (Simulation time: 0 hr 6 min 8 sec) 
Heartbeat CPU 0 instructions: 70000001 cycles: 73846483 heartbeat IPC: 1.03069 cumulative IPC: 0.937546 (Simulation time: 0 hr 7 min 7 sec) 
Heartbeat CPU 0 instructions: 80000000 cycles: 83675611 heartbeat IPC: 1.01738 cumulative IPC: 0.946952 (Simulation time: 0 hr 8 min 6 sec) 
Heartbeat CPU 0 instructions: 90000000 cycles: 93441328 heartbeat IPC: 1.02399 cumulative IPC: 0.955025 (Simulation time: 0 hr 9 min 5 sec) 
Heartbeat CPU 0 instructions: 100000000 cycles: 103711301 heartbeat IPC: 0.973712 cumulative IPC: 0.95688 (Simulation time: 0 hr 10 min 5 sec) 
Heartbeat CPU 0 instructions: 110000002 cycles: 113492097 heartbeat IPC: 1.02241 cumulative IPC: 0.96254 (Simulation time: 0 hr 11 min 4 sec) 
Heartbeat CPU 0 instructions: 120000001 cycles: 123704675 heartbeat IPC: 0.979185 cumulative IPC: 0.963917 (Simulation time: 0 hr 12 min 5 sec) 
Heartbeat CPU 0 instructions: 130000001 cycles: 134877347 heartbeat IPC: 0.895041 cumulative IPC: 0.958201 (Simulation time: 0 hr 13 min 9 sec) 
Heartbeat CPU 0 instructions: 140000003 cycles: 144839913 heartbeat IPC: 1.00376 cumulative IPC: 0.96134 (Simulation time: 0 hr 14 min 8 sec) 
Heartbeat CPU 0 instructions: 150000000 cycles: 155220962 heartbeat IPC: 0.963293 cumulative IPC: 0.961471 (Simulation time: 0 hr 15 min 10 sec) 
Heartbeat CPU 0 instructions: 160000002 cycles: 165464526 heartbeat IPC: 0.976223 cumulative IPC: 0.962386 (Simulation time: 0 hr 16 min 10 sec) 
Heartbeat CPU 0 instructions: 170000000 cycles: 177111170 heartbeat IPC: 0.858616 cumulative IPC: 0.955552 (Simulation time: 0 hr 17 min 15 sec) 
Heartbeat CPU 0 instructions: 180000000 cycles: 188562375 heartbeat IPC: 0.873271 cumulative IPC: 0.950549 (Simulation time: 0 hr 18 min 20 sec) 
Heartbeat CPU 0 instructions: 190000000 cycles: 198490622 heartbeat IPC: 1.00723 cumulative IPC: 0.953387 (Simulation time: 0 hr 19 min 20 sec) 
Heartbeat CPU 0 instructions: 200000000 cycles: 208987101 heartbeat IPC: 0.9527 cumulative IPC: 0.953353 (Simulation time: 0 hr 20 min 22 sec) 
Heartbeat CPU 0 instructions: 210000004 cycles: 220667898 heartbeat IPC: 0.856106 cumulative IPC: 0.948199 (Simulation time: 0 hr 21 min 28 sec) 
Heartbeat CPU 0 instructions: 220000001 cycles: 231799384 heartbeat IPC: 0.898352 cumulative IPC: 0.945803 (Simulation time: 0 hr 22 min 31 sec) 
Heartbeat CPU 0 instructions: 230000003 cycles: 244934060 heartbeat IPC: 0.761344 cumulative IPC: 0.935901 (Simulation time: 0 hr 23 min 38 sec) 
Heartbeat CPU 0 instructions: 240000004 cycles: 256029260 heartbeat IPC: 0.901291 cumulative IPC: 0.9344 (Simulation time: 0 hr 24 min 41 sec) 
Heartbeat CPU 0 instructions: 250000004 cycles: 268174141 heartbeat IPC: 0.823392 cumulative IPC: 0.929368 (Simulation time: 0 hr 25 min 47 sec) 
Heartbeat CPU 0 instructions: 260000000 cycles: 278435976 heartbeat IPC: 0.974484 cumulative IPC: 0.931032 (Simulation time: 0 hr 26 min 44 sec) 
Heartbeat CPU 0 instructions: 270000001 cycles: 288371300 heartbeat IPC: 1.00651 cumulative IPC: 0.933635 (Simulation time: 0 hr 27 min 40 sec) 
Heartbeat CPU 0 instructions: 280000001 cycles: 298704405 heartbeat IPC: 0.967763 cumulative IPC: 0.934816 (Simulation time: 0 hr 28 min 36 sec) 
Heartbeat CPU 0 instructions: 290000003 cycles: 308831791 heartbeat IPC: 0.987422 cumulative IPC: 0.936543 (Simulation time: 0 hr 29 min 32 sec) 
Heartbeat CPU 0 instructions: 300000000 cycles: 319091177 heartbeat IPC: 0.974717 cumulative IPC: 0.937771 (Simulation time: 0 hr 30 min 29 sec) 
Heartbeat CPU 0 instructions: 310000004 cycles: 329341416 heartbeat IPC: 0.975587 cumulative IPC: 0.938949 (Simulation time: 0 hr 31 min 25 sec) 
Heartbeat CPU 0 instructions: 320000001 cycles: 339817850 heartbeat IPC: 0.954523 cumulative IPC: 0.93943 (Simulation time: 0 hr 32 min 23 sec) 
Heartbeat CPU 0 instructions: 330000000 cycles: 350391009 heartbeat IPC: 0.945791 cumulative IPC: 0.939622 (Simulation time: 0 hr 33 min 22 sec) 
Heartbeat CPU 0 instructions: 340000002 cycles: 360615027 heartbeat IPC: 0.978089 cumulative IPC: 0.940713 (Simulation time: 0 hr 34 min 19 sec) 
Heartbeat CPU 0 instructions: 350000001 cycles: 370890082 heartbeat IPC: 0.973231 cumulative IPC: 0.941615 (Simulation time: 0 hr 35 min 15 sec) 
Heartbeat CPU 0 instructions: 360000002 cycles: 381964028 heartbeat IPC: 0.903021 cumulative IPC: 0.940495 (Simulation time: 0 hr 36 min 15 sec) 
Heartbeat CPU 0 instructions: 370000000 cycles: 392998182 heartbeat IPC: 0.906277 cumulative IPC: 0.939533 (Simulation time: 0 hr 37 min 14 sec) 
Heartbeat CPU 0 instructions: 380000002 cycles: 403551565 heartbeat IPC: 0.947564 cumulative IPC: 0.939744 (Simulation time: 0 hr 38 min 12 sec) 
Heartbeat CPU 0 instructions: 390000004 cycles: 414157193 heartbeat IPC: 0.942896 cumulative IPC: 0.939824 (Simulation time: 0 hr 39 min 10 sec) 
Heartbeat CPU 0 instructions: 400000003 cycles: 424992728 heartbeat IPC: 0.922889 cumulative IPC: 0.939392 (Simulation time: 0 hr 40 min 10 sec) 
Heartbeat CPU 0 instructions: 410000004 cycles: 436293130 heartbeat IPC: 0.884924 cumulative IPC: 0.937981 (Simulation time: 0 hr 41 min 12 sec) 
Heartbeat CPU 0 instructions: 420000000 cycles: 447011436 heartbeat IPC: 0.932983 cumulative IPC: 0.937861 (Simulation time: 0 hr 42 min 11 sec) 
Heartbeat CPU 0 instructions: 430000000 cycles: 457932449 heartbeat IPC: 0.915666 cumulative IPC: 0.937331 (Simulation time: 0 hr 43 min 11 sec) 
Heartbeat CPU 0 instructions: 440000003 cycles: 468848458 heartbeat IPC: 0.916086 cumulative IPC: 0.936836 (Simulation time: 0 hr 44 min 9 sec) 
Heartbeat CPU 0 instructions: 450000001 cycles: 480080151 heartbeat IPC: 0.890338 cumulative IPC: 0.935748 (Simulation time: 0 hr 45 min 8 sec) 
Heartbeat CPU 0 instructions: 460000003 cycles: 491095829 heartbeat IPC: 0.907797 cumulative IPC: 0.935121 (Simulation time: 0 hr 46 min 7 sec) 
Heartbeat CPU 0 instructions: 470000004 cycles: 502749210 heartbeat IPC: 0.85812 cumulative IPC: 0.933335 (Simulation time: 0 hr 47 min 7 sec) 
Heartbeat CPU 0 instructions: 480000000 cycles: 515053347 heartbeat IPC: 0.812734 cumulative IPC: 0.930453 (Simulation time: 0 hr 48 min 8 sec) 
Heartbeat CPU 0 instructions: 490000003 cycles: 529069413 heartbeat IPC: 0.713467 cumulative IPC: 0.924701 (Simulation time: 0 hr 49 min 14 sec) 
Heartbeat CPU 0 instructions: 500000003 cycles: 543958727 heartbeat IPC: 0.671623 cumulative IPC: 0.917771 (Simulation time: 0 hr 50 min 23 sec) 
Heartbeat CPU 0 instructions: 510000001 cycles: 556400603 heartbeat IPC: 0.803737 cumulative IPC: 0.91522 (Simulation time: 0 hr 51 min 26 sec) 
Heartbeat CPU 0 instructions: 520000004 cycles: 569607903 heartbeat IPC: 0.757157 cumulative IPC: 0.911553 (Simulation time: 0 hr 52 min 30 sec) 
Heartbeat CPU 0 instructions: 530000004 cycles: 582344099 heartbeat IPC: 0.785164 cumulative IPC: 0.908788 (Simulation time: 0 hr 53 min 32 sec) 
Heartbeat CPU 0 instructions: 540000002 cycles: 595110876 heartbeat IPC: 0.783283 cumulative IPC: 0.906094 (Simulation time: 0 hr 54 min 34 sec) 
Heartbeat CPU 0 instructions: 550000000 cycles: 608742495 heartbeat IPC: 0.733588 cumulative IPC: 0.90223 (Simulation time: 0 hr 55 min 41 sec) 
Heartbeat CPU 0 instructions: 560000001 cycles: 621753602 heartbeat IPC: 0.768574 cumulative IPC: 0.899432 (Simulation time: 0 hr 56 min 45 sec) 
Heartbeat CPU 0 instructions: 570000000 cycles: 634073282 heartbeat IPC: 0.811709 cumulative IPC: 0.897727 (Simulation time: 0 hr 57 min 46 sec) 
Heartbeat CPU 0 instructions: 580000000 cycles: 645491410 heartbeat IPC: 0.8758 cumulative IPC: 0.897339 (Simulation time: 0 hr 58 min 44 sec) 
Heartbeat CPU 0 instructions: 590000001 cycles: 658102821 heartbeat IPC: 0.792933 cumulative IPC: 0.895337 (Simulation time: 0 hr 59 min 47 sec) 
Heartbeat CPU 0 instructions: 600000004 cycles: 670269758 heartbeat IPC: 0.8219 cumulative IPC: 0.894004 (Simulation time: 1 hr 0 min 48 sec) 
Heartbeat CPU 0 instructions: 610000003 cycles: 682759542 heartbeat IPC: 0.800654 cumulative IPC: 0.892295 (Simulation time: 1 hr 1 min 49 sec) 
Heartbeat CPU 0 instructions: 620000003 cycles: 694399250 heartbeat IPC: 0.859128 cumulative IPC: 0.891739 (Simulation time: 1 hr 2 min 49 sec) 
Heartbeat CPU 0 instructions: 630000000 cycles: 706765772 heartbeat IPC: 0.808635 cumulative IPC: 0.890285 (Simulation time: 1 hr 3 min 51 sec) 
Heartbeat CPU 0 instructions: 640000003 cycles: 718704970 heartbeat IPC: 0.837577 cumulative IPC: 0.889409 (Simulation time: 1 hr 4 min 53 sec) 
Heartbeat CPU 0 instructions: 650000002 cycles: 730429570 heartbeat IPC: 0.852907 cumulative IPC: 0.888823 (Simulation time: 1 hr 5 min 54 sec) 
Heartbeat CPU 0 instructions: 660000001 cycles: 742389734 heartbeat IPC: 0.836109 cumulative IPC: 0.887973 (Simulation time: 1 hr 6 min 58 sec) 
Heartbeat CPU 0 instructions: 670000002 cycles: 754505341 heartbeat IPC: 0.825382 cumulative IPC: 0.886968 (Simulation time: 1 hr 8 min 1 sec) 
Heartbeat CPU 0 instructions: 680000004 cycles: 766814292 heartbeat IPC: 0.812417 cumulative IPC: 0.885771 (Simulation time: 1 hr 9 min 6 sec) 
Heartbeat CPU 0 instructions: 690000002 cycles: 779006983 heartbeat IPC: 0.820163 cumulative IPC: 0.884743 (Simulation time: 1 hr 10 min 12 sec) 
Heartbeat CPU 0 instructions: 700000003 cycles: 792275089 heartbeat IPC: 0.753687 cumulative IPC: 0.882548 (Simulation time: 1 hr 11 min 22 sec) 
Heartbeat CPU 0 instructions: 710000004 cycles: 804700716 heartbeat IPC: 0.804788 cumulative IPC: 0.881347 (Simulation time: 1 hr 12 min 28 sec) 
Heartbeat CPU 0 instructions: 720000000 cycles: 816542798 heartbeat IPC: 0.844446 cumulative IPC: 0.880811 (Simulation time: 1 hr 13 min 32 sec) 
Heartbeat CPU 0 instructions: 730000000 cycles: 828788116 heartbeat IPC: 0.816639 cumulative IPC: 0.879863 (Simulation time: 1 hr 14 min 37 sec) 
Heartbeat CPU 0 instructions: 740000002 cycles: 841022256 heartbeat IPC: 0.817385 cumulative IPC: 0.878954 (Simulation time: 1 hr 15 min 40 sec) 
Heartbeat CPU 0 instructions: 750000004 cycles: 854431744 heartbeat IPC: 0.745741 cumulative IPC: 0.876863 (Simulation time: 1 hr 16 min 47 sec) 
Heartbeat CPU 0 instructions: 760000004 cycles: 868489626 heartbeat IPC: 0.711345 cumulative IPC: 0.874183 (Simulation time: 1 hr 17 min 56 sec) 
Heartbeat CPU 0 instructions: 770000002 cycles: 882479625 heartbeat IPC: 0.714796 cumulative IPC: 0.871655 (Simulation time: 1 hr 19 min 5 sec) 
Heartbeat CPU 0 instructions: 780000000 cycles: 895865224 heartbeat IPC: 0.747071 cumulative IPC: 0.869793 (Simulation time: 1 hr 20 min 12 sec) 
Heartbeat CPU 0 instructions: 790000000 cycles: 908976570 heartbeat IPC: 0.762698 cumulative IPC: 0.868248 (Simulation time: 1 hr 21 min 18 sec) 
Heartbeat CPU 0 instructions: 800000001 cycles: 922612792 heartbeat IPC: 0.733341 cumulative IPC: 0.866254 (Simulation time: 1 hr 22 min 27 sec) 
Heartbeat CPU 0 instructions: 810000003 cycles: 935483250 heartbeat IPC: 0.776973 cumulative IPC: 0.865025 (Simulation time: 1 hr 23 min 34 sec) 
Heartbeat CPU 0 instructions: 820000001 cycles: 948841973 heartbeat IPC: 0.748574 cumulative IPC: 0.863385 (Simulation time: 1 hr 24 min 43 sec) 
Heartbeat CPU 0 instructions: 830000003 cycles: 962065442 heartbeat IPC: 0.756231 cumulative IPC: 0.861912 (Simulation time: 1 hr 25 min 52 sec) 
Heartbeat CPU 0 instructions: 840000001 cycles: 974417312 heartbeat IPC: 0.809594 cumulative IPC: 0.861248 (Simulation time: 1 hr 27 min 0 sec) 
Heartbeat CPU 0 instructions: 850000000 cycles: 986282492 heartbeat IPC: 0.842802 cumulative IPC: 0.861026 (Simulation time: 1 hr 28 min 7 sec) 
Heartbeat CPU 0 instructions: 860000004 cycles: 999029808 heartbeat IPC: 0.784479 cumulative IPC: 0.860049 (Simulation time: 1 hr 29 min 16 sec) 
Heartbeat CPU 0 instructions: 870000000 cycles: 1012217179 heartbeat IPC: 0.758301 cumulative IPC: 0.858724 (Simulation time: 1 hr 30 min 26 sec) 
Heartbeat CPU 0 instructions: 880000002 cycles: 1024705899 heartbeat IPC: 0.800723 cumulative IPC: 0.858016 (Simulation time: 1 hr 31 min 35 sec) 
Heartbeat CPU 0 instructions: 890000004 cycles: 1038120471 heartbeat IPC: 0.745458 cumulative IPC: 0.856562 (Simulation time: 1 hr 32 min 46 sec) 
Heartbeat CPU 0 instructions: 900000000 cycles: 1052863662 heartbeat IPC: 0.678279 cumulative IPC: 0.854065 (Simulation time: 1 hr 34 min 3 sec) 
Heartbeat CPU 0 instructions: 910000002 cycles: 1067476560 heartbeat IPC: 0.684327 cumulative IPC: 0.85174 (Simulation time: 1 hr 35 min 19 sec) 
Heartbeat CPU 0 instructions: 920000004 cycles: 1081453090 heartbeat IPC: 0.715485 cumulative IPC: 0.849979 (Simulation time: 1 hr 36 min 33 sec) 
Heartbeat CPU 0 instructions: 930000002 cycles: 1095005915 heartbeat IPC: 0.737853 cumulative IPC: 0.848591 (Simulation time: 1 hr 37 min 45 sec) 
Heartbeat CPU 0 instructions: 940000000 cycles: 1108433916 heartbeat IPC: 0.744712 cumulative IPC: 0.847332 (Simulation time: 1 hr 38 min 56 sec) 
Heartbeat CPU 0 instructions: 950000002 cycles: 1122026205 heartbeat IPC: 0.735711 cumulative IPC: 0.84598 (Simulation time: 1 hr 40 min 8 sec) 
Heartbeat CPU 0 instructions: 960000000 cycles: 1135678609 heartbeat IPC: 0.732472 cumulative IPC: 0.844615 (Simulation time: 1 hr 41 min 21 sec) 
Heartbeat CPU 0 instructions: 970000000 cycles: 1148495833 heartbeat IPC: 0.7802 cumulative IPC: 0.843896 (Simulation time: 1 hr 42 min 29 sec) 
Heartbeat CPU 0 instructions: 980000000 cycles: 1161601025 heartbeat IPC: 0.763056 cumulative IPC: 0.842984 (Simulation time: 1 hr 43 min 41 sec) 
Heartbeat CPU 0 instructions: 990000002 cycles: 1174263140 heartbeat IPC: 0.789758 cumulative IPC: 0.84241 (Simulation time: 1 hr 44 min 51 sec) 
Heartbeat CPU 0 instructions: 1000000000 cycles: 1187478783 heartbeat IPC: 0.756679 cumulative IPC: 0.841455 (Simulation time: 1 hr 46 min 3 sec) 
Finished CPU 0 instructions: 1000000003 cycles: 1188601870 cumulative IPC: 0.841325 (Simulation time: 1 hr 46 min 10 sec) 

ChampSim completed all CPUs

Region of Interest Statistics

CPU 0 cumulative IPC: 0.841325 instructions: 1000000003 cycles: 1188601870
cpu0_DTLB TOTAL     ACCESS:  234153379  HIT:  231112989  MISS:    3040390
cpu0_DTLB LOAD      ACCESS:  180349522  HIT:  177430625  MISS:    2918897
cpu0_DTLB RFO       ACCESS:   53803857  HIT:   53682364  MISS:     121493
cpu0_DTLB PREFETCH  ACCESS:          0  HIT:          0  MISS:          0
cpu0_DTLB WRITEBACK ACCESS:          0  HIT:          0  MISS:          0
cpu0_DTLB TRANSLATION ACCESS:          0  HIT:          0  MISS:          0
cpu0_DTLB PREFETCH  REQUESTED:          0  ISSUED:          0  USEFUL:          0  USELESS:          0
cpu0_DTLB AVERAGE MISS LATENCY: 10.2063 cycles
cpu0_ITLB TOTAL     ACCESS:  105533874  HIT:  105533874  MISS:          0
cpu0_ITLB LOAD      ACCESS:  105533874  HIT:  105533874  MISS:          0
cpu0_ITLB RFO       ACCESS:          0  HIT:          0  MISS:          0
cpu0_ITLB PREFETCH  ACCESS:          0  HIT:          0  MISS:          0
cpu0_ITLB WRITEBACK ACCESS:          0  HIT:          0  MISS:          0
cpu0_ITLB TRANSLATION ACCESS:          0  HIT:          0  MISS:          0
cpu0_ITLB PREFETCH  REQUESTED:          0  ISSUED:          0  USEFUL:          0  USELESS:          0
cpu0_ITLB AVERAGE MISS LATENCY: -nan cycles
cpu0_STLB TOTAL     ACCESS:    3040390  HIT:    2709838  MISS:     330552
cpu0_STLB LOAD      ACCESS:    2918897  HIT:    2602135  MISS:     316762
cpu0_STLB RFO       ACCESS:     121493  HIT:     107703  MISS:      13790
cpu0_STLB PREFETCH  ACCESS:          0  HIT:          0  MISS:          0
cpu0_STLB WRITEBACK ACCESS:          0  HIT:          0  MISS:          0
cpu0_STLB TRANSLATION ACCESS:          0  HIT:          0  MISS:          0
cpu0_STLB PREFETCH  REQUESTED:          0  ISSUED:          0  USEFUL:          0  USELESS:          0
cpu0_STLB AVERAGE MISS LATENCY: 11.0293 cycles
cpu0_L1D TOTAL     ACCESS:  458093594  HIT:  448876574  MISS:    9217020
cpu0_L1D LOAD      ACCESS:  164127313  HIT:  159543190  MISS:    4584123
cpu0_L1D RFO       ACCESS:  129909662  HIT:  129157265  MISS:     752397
cpu0_L1D PREFETCH  ACCESS:  163727112  HIT:  159864451  MISS:    3862661
cpu0_L1D WRITEBACK ACCESS:          0  HIT:          0  MISS:          0
cpu0_L1D TRANSLATION ACCESS:     329507  HIT:     311668  MISS:      17839
cpu0_L1D PREFETCH  REQUESTED:  166588517  ISSUED:  166072790  USEFUL:    3462499  USELESS:     434701
cpu0_L1D AVERAGE MISS LATENCY: 101.634 cycles
cpu0_L2C TOTAL     ACCESS:   13203633  HIT:    9356641  MISS:    3846992
cpu0_L2C LOAD      ACCESS:    4548915  HIT:    2678054  MISS:    1870861
cpu0_L2C RFO       ACCESS:     752388  HIT:     301581  MISS:     450807
cpu0_L2C PREFETCH  ACCESS:    5896718  HIT:    4373522  MISS:    1523196
cpu0_L2C WRITEBACK ACCESS:    1987773  HIT:    1986696  MISS:       1077
cpu0_L2C TRANSLATION ACCESS:      17839  HIT:      16788  MISS:       1051
cpu0_L2C PREFETCH  REQUESTED:    2000239  ISSUED:    2000239  USEFUL:      56854  USELESS:       2285
cpu0_L2C AVERAGE MISS LATENCY: 219.088 cycles
LLC TOTAL     ACCESS:    5322299  HIT:    2998589  MISS:    2323710
LLC LOAD      ACCESS:    1870784  HIT:     754307  MISS:    1116477
LLC RFO       ACCESS:     450805  HIT:      59906  MISS:     390899
LLC PREFETCH  ACCESS:    1523196  HIT:     707007  MISS:     816189
LLC WRITEBACK ACCESS:    1476463  HIT:    1476401  MISS:         62
LLC TRANSLATION ACCESS:       1051  HIT:        968  MISS:         83
LLC PREFETCH  REQUESTED:          0  ISSUED:          0  USEFUL:          0  USELESS:          0
LLC AVERAGE MISS LATENCY: 318.026 cycles

DRAM Statistics
 CHANNEL 0
 RQ ROW_BUFFER_HIT:     152926  ROW_BUFFER_MISS:    2170692
 DBUS AVG_CONGESTED_CYCLE:    3.72688
 WQ ROW_BUFFER_HIT:     193069  ROW_BUFFER_MISS:    1000694  FULL:          0


CPU 0 Branch Prediction Accuracy: 86.4943% MPKI: 17.6184 Average ROB Occupancy at Mispredict: 45.4904
Branch type MPKI
BRANCH_DIRECT_JUMP: 0
BRANCH_INDIRECT: 0
BRANCH_CONDITIONAL: 17.6184
BRANCH_DIRECT_CALL: 0
BRANCH_INDIRECT_CALL: 0
BRANCH_RETURN: 0

