
*** ChampSim Multicore Out-of-Order Simulator ***

Warmup Instructions: 1000000
Simulation Instructions: 1000000000
Number of CPUs: 1
Off-chip DRAM Size: 4 GiB Channels: 1 Width: 64-bit Data Rate: 3200 MT/s

VirtualMemory physical capacity: 8588881920 num_ppages: 2096895
VirtualMemory page size: 4096 log2_page_size: 12

CPU 0 runs tracer/pin/traces/spec2k6/450.soplex-247B.champsimtrace.xz
Basic BTB sets: 1024 ways: 8 indirect buffer size: 4096 RAS size: 64
cpu0_L1D next line prefetcher
cpu0_L2C IP-based stride prefetcher
WARNING: The extended signature CACHE::prefetch_line(ip, base_addr, pf_addr, fill_this_level, prefetch_metadata) is deprecated.
WARNING: Use CACHE::prefetch_line(pf_addr, fill_this_level, prefetch_metadata) instead.

Warmup complete CPU 0 instructions: 1000001 cycles: 294315 (Simulation time: 0 hr 0 min 3 sec) 

Heartbeat CPU 0 instructions: 10000000 cycles: 36422854 heartbeat IPC: 0.274553 cumulative IPC: 0.249111 (Simulation time: 0 hr 1 min 53 sec) 
Heartbeat CPU 0 instructions: 20000001 cycles: 104014152 heartbeat IPC: 0.147948 cumulative IPC: 0.183186 (Simulation time: 0 hr 4 min 43 sec) 
Heartbeat CPU 0 instructions: 30000002 cycles: 174324398 heartbeat IPC: 0.142227 cumulative IPC: 0.166638 (Simulation time: 0 hr 7 min 41 sec) 
Heartbeat CPU 0 instructions: 40000002 cycles: 236512393 heartbeat IPC: 0.160803 cumulative IPC: 0.165102 (Simulation time: 0 hr 10 min 19 sec) 
Heartbeat CPU 0 instructions: 50000000 cycles: 298178635 heartbeat IPC: 0.162163 cumulative IPC: 0.164493 (Simulation time: 0 hr 12 min 56 sec) 
Heartbeat CPU 0 instructions: 60000002 cycles: 359531677 heartbeat IPC: 0.162991 cumulative IPC: 0.164237 (Simulation time: 0 hr 15 min 32 sec) 
Heartbeat CPU 0 instructions: 70000000 cycles: 426286422 heartbeat IPC: 0.149802 cumulative IPC: 0.161975 (Simulation time: 0 hr 18 min 19 sec) 
Heartbeat CPU 0 instructions: 80000000 cycles: 490553602 heartbeat IPC: 0.1556 cumulative IPC: 0.161139 (Simulation time: 0 hr 21 min 2 sec) 
Heartbeat CPU 0 instructions: 90000002 cycles: 556278037 heartbeat IPC: 0.15215 cumulative IPC: 0.160077 (Simulation time: 0 hr 23 min 49 sec) 
Heartbeat CPU 0 instructions: 100000003 cycles: 619078783 heartbeat IPC: 0.159234 cumulative IPC: 0.159991 (Simulation time: 0 hr 26 min 33 sec) 
Heartbeat CPU 0 instructions: 110000001 cycles: 683507000 heartbeat IPC: 0.155211 cumulative IPC: 0.15954 (Simulation time: 0 hr 28 min 55 sec) 
Heartbeat CPU 0 instructions: 120000003 cycles: 722203154 heartbeat IPC: 0.258424 cumulative IPC: 0.164841 (Simulation time: 0 hr 30 min 54 sec) 
Heartbeat CPU 0 instructions: 130000002 cycles: 789967153 heartbeat IPC: 0.147571 cumulative IPC: 0.163359 (Simulation time: 0 hr 33 min 42 sec) 
Heartbeat CPU 0 instructions: 140000004 cycles: 843368827 heartbeat IPC: 0.18726 cumulative IPC: 0.164873 (Simulation time: 0 hr 35 min 59 sec) 
Heartbeat CPU 0 instructions: 150000004 cycles: 896169428 heartbeat IPC: 0.189392 cumulative IPC: 0.166318 (Simulation time: 0 hr 38 min 34 sec) 
Heartbeat CPU 0 instructions: 160000002 cycles: 955985004 heartbeat IPC: 0.167181 cumulative IPC: 0.166372 (Simulation time: 0 hr 41 min 26 sec) 
Heartbeat CPU 0 instructions: 170000001 cycles: 1011316908 heartbeat IPC: 0.180728 cumulative IPC: 0.167157 (Simulation time: 0 hr 44 min 12 sec) 
Heartbeat CPU 0 instructions: 180000004 cycles: 1068775753 heartbeat IPC: 0.174038 cumulative IPC: 0.167527 (Simulation time: 0 hr 47 min 6 sec) 
Heartbeat CPU 0 instructions: 190000004 cycles: 1123528059 heartbeat IPC: 0.182641 cumulative IPC: 0.168264 (Simulation time: 0 hr 50 min 7 sec) 
Heartbeat CPU 0 instructions: 200000000 cycles: 1190980475 heartbeat IPC: 0.148253 cumulative IPC: 0.167131 (Simulation time: 0 hr 53 min 50 sec) 
Heartbeat CPU 0 instructions: 210000001 cycles: 1254914676 heartbeat IPC: 0.156411 cumulative IPC: 0.166584 (Simulation time: 0 hr 57 min 10 sec) 
Heartbeat CPU 0 instructions: 220000004 cycles: 1289434627 heartbeat IPC: 0.289688 cumulative IPC: 0.169881 (Simulation time: 0 hr 59 min 22 sec) 
Heartbeat CPU 0 instructions: 230000002 cycles: 1341257637 heartbeat IPC: 0.192964 cumulative IPC: 0.170773 (Simulation time: 1 hr 2 min 42 sec) 
Heartbeat CPU 0 instructions: 240000000 cycles: 1400470350 heartbeat IPC: 0.168883 cumulative IPC: 0.170693 (Simulation time: 1 hr 6 min 18 sec) 
Heartbeat CPU 0 instructions: 250000000 cycles: 1456325517 heartbeat IPC: 0.179034 cumulative IPC: 0.171013 (Simulation time: 1 hr 9 min 50 sec) 
Heartbeat CPU 0 instructions: 260000000 cycles: 1514251052 heartbeat IPC: 0.172635 cumulative IPC: 0.171075 (Simulation time: 1 hr 13 min 34 sec) 
Heartbeat CPU 0 instructions: 270000000 cycles: 1571237612 heartbeat IPC: 0.17548 cumulative IPC: 0.171235 (Simulation time: 1 hr 17 min 27 sec) 
Heartbeat CPU 0 instructions: 280000000 cycles: 1635801581 heartbeat IPC: 0.154885 cumulative IPC: 0.170589 (Simulation time: 1 hr 21 min 35 sec) 
Heartbeat CPU 0 instructions: 290000000 cycles: 1688639154 heartbeat IPC: 0.189259 cumulative IPC: 0.171174 (Simulation time: 1 hr 25 min 1 sec) 
Heartbeat CPU 0 instructions: 300000002 cycles: 1743190929 heartbeat IPC: 0.183312 cumulative IPC: 0.171553 (Simulation time: 1 hr 28 min 34 sec) 
Heartbeat CPU 0 instructions: 310000002 cycles: 1802299402 heartbeat IPC: 0.16918 cumulative IPC: 0.171476 (Simulation time: 1 hr 32 min 28 sec) 
Heartbeat CPU 0 instructions: 320000000 cycles: 1875335053 heartbeat IPC: 0.136919 cumulative IPC: 0.17013 (Simulation time: 1 hr 36 min 47 sec) 
Heartbeat CPU 0 instructions: 330000003 cycles: 1908867838 heartbeat IPC: 0.298216 cumulative IPC: 0.17238 (Simulation time: 1 hr 39 min 12 sec) 
Heartbeat CPU 0 instructions: 340000000 cycles: 1965584347 heartbeat IPC: 0.176315 cumulative IPC: 0.172494 (Simulation time: 1 hr 42 min 51 sec) 
Heartbeat CPU 0 instructions: 350000000 cycles: 2025863207 heartbeat IPC: 0.165896 cumulative IPC: 0.172297 (Simulation time: 1 hr 46 min 36 sec) 
Heartbeat CPU 0 instructions: 360000004 cycles: 2084890291 heartbeat IPC: 0.169414 cumulative IPC: 0.172216 (Simulation time: 1 hr 50 min 16 sec) 
Heartbeat CPU 0 instructions: 370000002 cycles: 2143869521 heartbeat IPC: 0.169551 cumulative IPC: 0.172142 (Simulation time: 1 hr 53 min 56 sec) 
Heartbeat CPU 0 instructions: 380000004 cycles: 2202878523 heartbeat IPC: 0.169466 cumulative IPC: 0.172071 (Simulation time: 1 hr 57 min 32 sec) 
Heartbeat CPU 0 instructions: 390000000 cycles: 2261910189 heartbeat IPC: 0.169401 cumulative IPC: 0.172001 (Simulation time: 2 hr 1 min 1 sec) 
Heartbeat CPU 0 instructions: 400000000 cycles: 2320912558 heartbeat IPC: 0.169485 cumulative IPC: 0.171937 (Simulation time: 2 hr 4 min 32 sec) 
Heartbeat CPU 0 instructions: 410000000 cycles: 2379999803 heartbeat IPC: 0.169241 cumulative IPC: 0.17187 (Simulation time: 2 hr 8 min 2 sec) 
Heartbeat CPU 0 instructions: 420000000 cycles: 2438996279 heartbeat IPC: 0.169502 cumulative IPC: 0.171813 (Simulation time: 2 hr 11 min 28 sec) 
Heartbeat CPU 0 instructions: 430000004 cycles: 2497941292 heartbeat IPC: 0.16965 cumulative IPC: 0.171762 (Simulation time: 2 hr 15 min 2 sec) 
Heartbeat CPU 0 instructions: 440000003 cycles: 2564385490 heartbeat IPC: 0.150502 cumulative IPC: 0.171211 (Simulation time: 2 hr 18 min 43 sec) 
Heartbeat CPU 0 instructions: 450000003 cycles: 2597671421 heartbeat IPC: 0.300427 cumulative IPC: 0.172867 (Simulation time: 2 hr 21 min 21 sec) 
Heartbeat CPU 0 instructions: 460000000 cycles: 2656962193 heartbeat IPC: 0.16866 cumulative IPC: 0.172773 (Simulation time: 2 hr 25 min 6 sec) 
Heartbeat CPU 0 instructions: 470000002 cycles: 2715521460 heartbeat IPC: 0.170767 cumulative IPC: 0.17273 (Simulation time: 2 hr 28 min 40 sec) 
Heartbeat CPU 0 instructions: 480000000 cycles: 2774382266 heartbeat IPC: 0.169892 cumulative IPC: 0.172669 (Simulation time: 2 hr 32 min 14 sec) 
Heartbeat CPU 0 instructions: 490000001 cycles: 2833263054 heartbeat IPC: 0.169835 cumulative IPC: 0.17261 (Simulation time: 2 hr 35 min 50 sec) 
Heartbeat CPU 0 instructions: 500000004 cycles: 2892085821 heartbeat IPC: 0.170002 cumulative IPC: 0.172557 (Simulation time: 2 hr 39 min 40 sec) 
Heartbeat CPU 0 instructions: 510000003 cycles: 2950941067 heartbeat IPC: 0.169908 cumulative IPC: 0.172505 (Simulation time: 2 hr 43 min 32 sec) 
Heartbeat CPU 0 instructions: 520000002 cycles: 3009847928 heartbeat IPC: 0.169759 cumulative IPC: 0.172451 (Simulation time: 2 hr 47 min 22 sec) 
Heartbeat CPU 0 instructions: 530000000 cycles: 3068665941 heartbeat IPC: 0.170016 cumulative IPC: 0.172404 (Simulation time: 2 hr 51 min 10 sec) 
Heartbeat CPU 0 instructions: 540000003 cycles: 3127468053 heartbeat IPC: 0.170062 cumulative IPC: 0.17236 (Simulation time: 2 hr 55 min 1 sec) 
Heartbeat CPU 0 instructions: 550000000 cycles: 3185610685 heartbeat IPC: 0.171991 cumulative IPC: 0.172353 (Simulation time: 2 hr 58 min 48 sec) 
Heartbeat CPU 0 instructions: 560000001 cycles: 3249773002 heartbeat IPC: 0.155855 cumulative IPC: 0.172028 (Simulation time: 3 hr 2 min 18 sec) 
Heartbeat CPU 0 instructions: 570000003 cycles: 3288569678 heartbeat IPC: 0.257754 cumulative IPC: 0.173039 (Simulation time: 3 hr 5 min 23 sec) 
Heartbeat CPU 0 instructions: 580000001 cycles: 3356747713 heartbeat IPC: 0.146675 cumulative IPC: 0.172504 (Simulation time: 3 hr 10 min 1 sec) 
Heartbeat CPU 0 instructions: 590000000 cycles: 3415554149 heartbeat IPC: 0.170049 cumulative IPC: 0.172461 (Simulation time: 3 hr 13 min 46 sec) 
Heartbeat CPU 0 instructions: 600000003 cycles: 3474832254 heartbeat IPC: 0.168696 cumulative IPC: 0.172397 (Simulation time: 3 hr 17 min 38 sec) 
Heartbeat CPU 0 instructions: 610000000 cycles: 3534125655 heartbeat IPC: 0.168653 cumulative IPC: 0.172334 (Simulation time: 3 hr 21 min 28 sec) 
Heartbeat CPU 0 instructions: 620000003 cycles: 3598650652 heartbeat IPC: 0.154979 cumulative IPC: 0.172023 (Simulation time: 3 hr 25 min 55 sec) 
Heartbeat CPU 0 instructions: 630000000 cycles: 3664879410 heartbeat IPC: 0.150992 cumulative IPC: 0.171643 (Simulation time: 3 hr 30 min 32 sec) 
Heartbeat CPU 0 instructions: 640000002 cycles: 3730222849 heartbeat IPC: 0.153038 cumulative IPC: 0.171317 (Simulation time: 3 hr 34 min 52 sec) 
Heartbeat CPU 0 instructions: 650000003 cycles: 3791587269 heartbeat IPC: 0.162961 cumulative IPC: 0.171182 (Simulation time: 3 hr 38 min 49 sec) 
Heartbeat CPU 0 instructions: 660000004 cycles: 3858333173 heartbeat IPC: 0.149822 cumulative IPC: 0.170812 (Simulation time: 3 hr 43 min 20 sec) 
Heartbeat CPU 0 instructions: 670000003 cycles: 3926337362 heartbeat IPC: 0.14705 cumulative IPC: 0.170401 (Simulation time: 3 hr 47 min 54 sec) 
Heartbeat CPU 0 instructions: 680000000 cycles: 4014981620 heartbeat IPC: 0.11281 cumulative IPC: 0.169129 (Simulation time: 3 hr 53 min 51 sec) 
Heartbeat CPU 0 instructions: 690000000 cycles: 4047674009 heartbeat IPC: 0.305882 cumulative IPC: 0.170234 (Simulation time: 3 hr 56 min 19 sec) 
Heartbeat CPU 0 instructions: 700000001 cycles: 4106265897 heartbeat IPC: 0.170672 cumulative IPC: 0.17024 (Simulation time: 4 hr 0 min 5 sec) 
Heartbeat CPU 0 instructions: 710000000 cycles: 4170472225 heartbeat IPC: 0.155748 cumulative IPC: 0.170017 (Simulation time: 4 hr 4 min 23 sec) 
Heartbeat CPU 0 instructions: 720000001 cycles: 4238171888 heartbeat IPC: 0.147711 cumulative IPC: 0.16966 (Simulation time: 4 hr 8 min 40 sec) 
Heartbeat CPU 0 instructions: 730000002 cycles: 4304092792 heartbeat IPC: 0.151697 cumulative IPC: 0.169385 (Simulation time: 4 hr 12 min 46 sec) 
Heartbeat CPU 0 instructions: 740000004 cycles: 4369586390 heartbeat IPC: 0.152687 cumulative IPC: 0.169135 (Simulation time: 4 hr 16 min 37 sec) 
Heartbeat CPU 0 instructions: 750000003 cycles: 4434756314 heartbeat IPC: 0.153445 cumulative IPC: 0.168904 (Simulation time: 4 hr 20 min 30 sec) 
Heartbeat CPU 0 instructions: 760000000 cycles: 4502621525 heartbeat IPC: 0.147351 cumulative IPC: 0.168579 (Simulation time: 4 hr 24 min 29 sec) 
Heartbeat CPU 0 instructions: 770000002 cycles: 4570796338 heartbeat IPC: 0.146682 cumulative IPC: 0.168253 (Simulation time: 4 hr 28 min 30 sec) 
Heartbeat CPU 0 instructions: 780000001 cycles: 4633198376 heartbeat IPC: 0.160251 cumulative IPC: 0.168145 (Simulation time: 4 hr 32 min 2 sec) 
Heartbeat CPU 0 instructions: 790000003 cycles: 4696473936 heartbeat IPC: 0.158039 cumulative IPC: 0.168009 (Simulation time: 4 hr 35 min 27 sec) 
Heartbeat CPU 0 instructions: 800000000 cycles: 4779388505 heartbeat IPC: 0.120606 cumulative IPC: 0.167186 (Simulation time: 4 hr 39 min 46 sec) 
Heartbeat CPU 0 instructions: 810000003 cycles: 4812933166 heartbeat IPC: 0.29811 cumulative IPC: 0.168099 (Simulation time: 4 hr 41 min 46 sec) 
Heartbeat CPU 0 instructions: 820000004 cycles: 4867444876 heartbeat IPC: 0.183447 cumulative IPC: 0.168271 (Simulation time: 4 hr 44 min 45 sec) 
Heartbeat CPU 0 instructions: 830000004 cycles: 4932163974 heartbeat IPC: 0.154514 cumulative IPC: 0.16809 (Simulation time: 4 hr 48 min 6 sec) 
Heartbeat CPU 0 instructions: 840000000 cycles: 4990189970 heartbeat IPC: 0.172336 cumulative IPC: 0.16814 (Simulation time: 4 hr 51 min 0 sec) 
Heartbeat CPU 0 instructions: 850000003 cycles: 5054717851 heartbeat IPC: 0.154972 cumulative IPC: 0.167972 (Simulation time: 4 hr 54 min 10 sec) 
Heartbeat CPU 0 instructions: 860000000 cycles: 5111246221 heartbeat IPC: 0.176902 cumulative IPC: 0.16807 (Simulation time: 4 hr 57 min 0 sec) 
Heartbeat CPU 0 instructions: 870000004 cycles: 5164231860 heartbeat IPC: 0.18873 cumulative IPC: 0.168282 (Simulation time: 4 hr 59 min 50 sec) 
Heartbeat CPU 0 instructions: 880000001 cycles: 5224741970 heartbeat IPC: 0.165262 cumulative IPC: 0.168247 (Simulation time: 5 hr 2 min 46 sec) 
Heartbeat CPU 0 instructions: 890000002 cycles: 5281239671 heartbeat IPC: 0.176998 cumulative IPC: 0.168341 (Simulation time: 5 hr 5 min 29 sec) 
Heartbeat CPU 0 instructions: 900000001 cycles: 5344686758 heartbeat IPC: 0.157612 cumulative IPC: 0.168214 (Simulation time: 5 hr 8 min 19 sec) 
Heartbeat CPU 0 instructions: 910000000 cycles: 5398442787 heartbeat IPC: 0.186026 cumulative IPC: 0.168391 (Simulation time: 5 hr 10 min 45 sec) 
Heartbeat CPU 0 instructions: 920000001 cycles: 5445038680 heartbeat IPC: 0.214611 cumulative IPC: 0.168787 (Simulation time: 5 hr 13 min 18 sec) 
Heartbeat CPU 0 instructions: 930000002 cycles: 5505375081 heartbeat IPC: 0.165737 cumulative IPC: 0.168753 (Simulation time: 5 hr 16 min 6 sec) 
Heartbeat CPU 0 instructions: 940000000 cycles: 5558468370 heartbeat IPC: 0.188348 cumulative IPC: 0.16894 (Simulation time: 5 hr 18 min 43 sec) 
Heartbeat CPU 0 instructions: 950000000 cycles: 5621265868 heartbeat IPC: 0.159242 cumulative IPC: 0.168832 (Simulation time: 5 hr 21 min 53 sec) 
Heartbeat CPU 0 instructions: 960000002 cycles: 5680859825 heartbeat IPC: 0.167802 cumulative IPC: 0.168821 (Simulation time: 5 hr 24 min 26 sec) 
Heartbeat CPU 0 instructions: 970000000 cycles: 5742207057 heartbeat IPC: 0.163007 cumulative IPC: 0.168759 (Simulation time: 5 hr 27 min 23 sec) 
Heartbeat CPU 0 instructions: 980000000 cycles: 5803790378 heartbeat IPC: 0.162382 cumulative IPC: 0.168691 (Simulation time: 5 hr 30 min 39 sec) 
Heartbeat CPU 0 instructions: 990000000 cycles: 5864798832 heartbeat IPC: 0.163912 cumulative IPC: 0.168642 (Simulation time: 5 hr 33 min 28 sec) 
Heartbeat CPU 0 instructions: 1000000004 cycles: 5921013557 heartbeat IPC: 0.177889 cumulative IPC: 0.168729 (Simulation time: 5 hr 35 min 47 sec) 
Finished CPU 0 instructions: 1000000003 cycles: 5932397484 cumulative IPC: 0.168566 (Simulation time: 5 hr 36 min 26 sec) 

ChampSim completed all CPUs

Region of Interest Statistics

CPU 0 cumulative IPC: 0.168566 instructions: 1000000003 cycles: 5932397484
cpu0_DTLB TOTAL     ACCESS:  238498830  HIT:  231267947  MISS:    7230883
cpu0_DTLB LOAD      ACCESS:  190695122  HIT:  184920676  MISS:    5774446
cpu0_DTLB RFO       ACCESS:   47803708  HIT:   46347271  MISS:    1456437
cpu0_DTLB PREFETCH  ACCESS:          0  HIT:          0  MISS:          0
cpu0_DTLB WRITEBACK ACCESS:          0  HIT:          0  MISS:          0
cpu0_DTLB TRANSLATION ACCESS:          0  HIT:          0  MISS:          0
cpu0_DTLB PREFETCH  REQUESTED:          0  ISSUED:          0  USEFUL:          0  USELESS:          0
cpu0_DTLB AVERAGE MISS LATENCY: 15.2659 cycles
cpu0_ITLB TOTAL     ACCESS:   71558687  HIT:   71558645  MISS:         42
cpu0_ITLB LOAD      ACCESS:   71558687  HIT:   71558645  MISS:         42
cpu0_ITLB RFO       ACCESS:          0  HIT:          0  MISS:          0
cpu0_ITLB PREFETCH  ACCESS:          0  HIT:          0  MISS:          0
cpu0_ITLB WRITEBACK ACCESS:          0  HIT:          0  MISS:          0
cpu0_ITLB TRANSLATION ACCESS:          0  HIT:          0  MISS:          0
cpu0_ITLB PREFETCH  REQUESTED:          0  ISSUED:          0  USEFUL:          0  USELESS:          0
cpu0_ITLB AVERAGE MISS LATENCY: 337.071 cycles
cpu0_L1I TOTAL     ACCESS:    8250842  HIT:    8245015  MISS:       5827
cpu0_L1I LOAD      ACCESS:    8250842  HIT:    8245015  MISS:       5827
cpu0_L1I RFO       ACCESS:          0  HIT:          0  MISS:          0
cpu0_L1I PREFETCH  ACCESS:          0  HIT:          0  MISS:          0
cpu0_L1I WRITEBACK ACCESS:          0  HIT:          0  MISS:          0
cpu0_L1I TRANSLATION ACCESS:          0  HIT:          0  MISS:          0
cpu0_L1I PREFETCH  REQUESTED:          0  ISSUED:          0  USEFUL:          0  USELESS:          0
cpu0_L1I AVERAGE MISS LATENCY: 624.15 cycles
cpu0_STLB TOTAL     ACCESS:    7230925  HIT:    6236734  MISS:     994191
cpu0_STLB LOAD      ACCESS:    5774488  HIT:    4861349  MISS:     913139
cpu0_STLB RFO       ACCESS:    1456437  HIT:    1375385  MISS:      81052
cpu0_STLB PREFETCH  ACCESS:          0  HIT:          0  MISS:          0
cpu0_STLB WRITEBACK ACCESS:          0  HIT:          0  MISS:          0
cpu0_STLB TRANSLATION ACCESS:          0  HIT:          0  MISS:          0
cpu0_STLB PREFETCH  REQUESTED:          0  ISSUED:          0  USEFUL:          0  USELESS:          0
cpu0_STLB AVERAGE MISS LATENCY: 44.5049 cycles
cpu0_L1D TOTAL     ACCESS:  343903917  HIT:  272022975  MISS:   71880942
cpu0_L1D LOAD      ACCESS:  160045835  HIT:  122459156  MISS:   37586679
cpu0_L1D RFO       ACCESS:   50034420  HIT:   42475928  MISS:    7558492
cpu0_L1D PREFETCH  ACCESS:  132856040  HIT:  106194553  MISS:   26661487
cpu0_L1D WRITEBACK ACCESS:          0  HIT:          0  MISS:          0
cpu0_L1D TRANSLATION ACCESS:     967622  HIT:     893338  MISS:      74284
cpu0_L1D PREFETCH  REQUESTED:  174044905  ISSUED:  164465353  USEFUL:   19099422  USELESS:   14285476
cpu0_L1D AVERAGE MISS LATENCY: 333.723 cycles
cpu0_L2C TOTAL     ACCESS:  117354724  HIT:   58830044  MISS:   58524680
cpu0_L2C LOAD      ACCESS:   30865278  HIT:    7876665  MISS:   22988613
cpu0_L2C RFO       ACCESS:    7556647  HIT:     831686  MISS:    6724961
cpu0_L2C PREFETCH  ACCESS:   55795122  HIT:   26998978  MISS:   28796144
cpu0_L2C WRITEBACK ACCESS:   23063393  HIT:   23060710  MISS:       2683
cpu0_L2C TRANSLATION ACCESS:      74284  HIT:      62005  MISS:      12279
cpu0_L2C PREFETCH  REQUESTED:   25415012  ISSUED:   23857590  USEFUL:    1208230  USELESS:    1060708
cpu0_L2C AVERAGE MISS LATENCY: 480.324 cycles
LLC TOTAL     ACCESS:   76438089  HIT:   35255845  MISS:   41182244
LLC LOAD      ACCESS:   22986816  HIT:    7841778  MISS:   15145038
LLC RFO       ACCESS:    6724788  HIT:    1849745  MISS:    4875043
LLC PREFETCH  ACCESS:   29290684  HIT:    8132827  MISS:   21157857
LLC WRITEBACK ACCESS:   17423522  HIT:   17422743  MISS:        779
LLC TRANSLATION ACCESS:      12279  HIT:       8752  MISS:       3527
LLC PREFETCH  REQUESTED:          0  ISSUED:          0  USEFUL:          0  USELESS:          0
LLC AVERAGE MISS LATENCY: 655.452 cycles

DRAM Statistics
 CHANNEL 0
 RQ ROW_BUFFER_HIT:    3267691  ROW_BUFFER_MISS:   37889638
 DBUS AVG_CONGESTED_CYCLE:    3.95294
 WQ ROW_BUFFER_HIT:     225179  ROW_BUFFER_MISS:   11462901  FULL:          0


CPU 0 Branch Prediction Accuracy: 93.6319% MPKI: 11.3881 Average ROB Occupancy at Mispredict: 44.5454
Branch type MPKI
BRANCH_DIRECT_JUMP: 0.00017
BRANCH_INDIRECT: 6.1e-05
BRANCH_CONDITIONAL: 11.3869
BRANCH_DIRECT_CALL: 0.000143
BRANCH_INDIRECT_CALL: 0.000166
BRANCH_RETURN: 0.000695

