
*** ChampSim Multicore Out-of-Order Simulator ***

Warmup Instructions: 1000000
Simulation Instructions: 1000000000
Number of CPUs: 1
Off-chip DRAM Size: 4 GiB Channels: 1 Width: 64-bit Data Rate: 3200 MT/s

VirtualMemory physical capacity: 8588881920 num_ppages: 2096895
VirtualMemory page size: 4096 log2_page_size: 12

CPU 0 runs tracer/pin/traces/spec2k6/464.h264ref-30B.champsimtrace.xz
Basic BTB sets: 1024 ways: 8 indirect buffer size: 4096 RAS size: 64
cpu0_L1D next line prefetcher
cpu0_L2C IP-based stride prefetcher
WARNING: The extended signature CACHE::prefetch_line(ip, base_addr, pf_addr, fill_this_level, prefetch_metadata) is deprecated.
WARNING: Use CACHE::prefetch_line(pf_addr, fill_this_level, prefetch_metadata) instead.

Warmup complete CPU 0 instructions: 1000002 cycles: 528322 (Simulation time: 0 hr 0 min 6 sec) 

Heartbeat CPU 0 instructions: 10000004 cycles: 6088510 heartbeat IPC: 1.64244 cumulative IPC: 1.61865 (Simulation time: 0 hr 0 min 58 sec) 
Heartbeat CPU 0 instructions: 20000001 cycles: 12203992 heartbeat IPC: 1.63519 cumulative IPC: 1.62732 (Simulation time: 0 hr 1 min 58 sec) 
Heartbeat CPU 0 instructions: 30000002 cycles: 18660448 heartbeat IPC: 1.54884 cumulative IPC: 1.59937 (Simulation time: 0 hr 2 min 50 sec) 
Heartbeat CPU 0 instructions: 40000003 cycles: 26698910 heartbeat IPC: 1.24402 cumulative IPC: 1.49022 (Simulation time: 0 hr 3 min 44 sec) 
Heartbeat CPU 0 instructions: 50000000 cycles: 32067167 heartbeat IPC: 1.8628 cumulative IPC: 1.55364 (Simulation time: 0 hr 4 min 34 sec) 
Heartbeat CPU 0 instructions: 60000003 cycles: 37133745 heartbeat IPC: 1.97372 cumulative IPC: 1.61178 (Simulation time: 0 hr 5 min 23 sec) 
Heartbeat CPU 0 instructions: 70000001 cycles: 42268331 heartbeat IPC: 1.94758 cumulative IPC: 1.65309 (Simulation time: 0 hr 6 min 12 sec) 
Heartbeat CPU 0 instructions: 80000001 cycles: 47824323 heartbeat IPC: 1.79986 cumulative IPC: 1.67033 (Simulation time: 0 hr 7 min 2 sec) 
Heartbeat CPU 0 instructions: 90000003 cycles: 55571601 heartbeat IPC: 1.29078 cumulative IPC: 1.61691 (Simulation time: 0 hr 7 min 56 sec) 
Heartbeat CPU 0 instructions: 100000002 cycles: 61284862 heartbeat IPC: 1.75031 cumulative IPC: 1.62945 (Simulation time: 0 hr 8 min 46 sec) 
Heartbeat CPU 0 instructions: 110000003 cycles: 66407053 heartbeat IPC: 1.95229 cumulative IPC: 1.65456 (Simulation time: 0 hr 9 min 35 sec) 
Heartbeat CPU 0 instructions: 120000001 cycles: 71603390 heartbeat IPC: 1.92443 cumulative IPC: 1.67429 (Simulation time: 0 hr 10 min 23 sec) 
Heartbeat CPU 0 instructions: 130000002 cycles: 76707917 heartbeat IPC: 1.95905 cumulative IPC: 1.69337 (Simulation time: 0 hr 11 min 13 sec) 
Heartbeat CPU 0 instructions: 140000003 cycles: 83923172 heartbeat IPC: 1.38595 cumulative IPC: 1.66677 (Simulation time: 0 hr 12 min 6 sec) 
Heartbeat CPU 0 instructions: 150000004 cycles: 90582598 heartbeat IPC: 1.50163 cumulative IPC: 1.65456 (Simulation time: 0 hr 13 min 9 sec) 
Heartbeat CPU 0 instructions: 160000000 cycles: 96605976 heartbeat IPC: 1.6602 cumulative IPC: 1.65491 (Simulation time: 0 hr 14 min 12 sec) 
Heartbeat CPU 0 instructions: 170000003 cycles: 102487441 heartbeat IPC: 1.70026 cumulative IPC: 1.65753 (Simulation time: 0 hr 15 min 10 sec) 
Heartbeat CPU 0 instructions: 180000003 cycles: 110265097 heartbeat IPC: 1.28573 cumulative IPC: 1.63118 (Simulation time: 0 hr 16 min 2 sec) 
Heartbeat CPU 0 instructions: 190000002 cycles: 117489541 heartbeat IPC: 1.38419 cumulative IPC: 1.61592 (Simulation time: 0 hr 17 min 6 sec) 
Heartbeat CPU 0 instructions: 200000003 cycles: 123489746 heartbeat IPC: 1.66661 cumulative IPC: 1.61839 (Simulation time: 0 hr 18 min 11 sec) 
Heartbeat CPU 0 instructions: 210000001 cycles: 129212083 heartbeat IPC: 1.74754 cumulative IPC: 1.62414 (Simulation time: 0 hr 19 min 12 sec) 
Heartbeat CPU 0 instructions: 220000003 cycles: 136074687 heartbeat IPC: 1.45717 cumulative IPC: 1.61568 (Simulation time: 0 hr 20 min 6 sec) 
Heartbeat CPU 0 instructions: 230000000 cycles: 143523969 heartbeat IPC: 1.34241 cumulative IPC: 1.60145 (Simulation time: 0 hr 21 min 6 sec) 
Heartbeat CPU 0 instructions: 240000004 cycles: 149528019 heartbeat IPC: 1.66554 cumulative IPC: 1.60403 (Simulation time: 0 hr 22 min 15 sec) 
Heartbeat CPU 0 instructions: 250000002 cycles: 155432450 heartbeat IPC: 1.69364 cumulative IPC: 1.60745 (Simulation time: 0 hr 23 min 23 sec) 
Heartbeat CPU 0 instructions: 260000004 cycles: 161596659 heartbeat IPC: 1.62227 cumulative IPC: 1.60801 (Simulation time: 0 hr 24 min 20 sec) 
Heartbeat CPU 0 instructions: 270000001 cycles: 169070466 heartbeat IPC: 1.33801 cumulative IPC: 1.59604 (Simulation time: 0 hr 25 min 29 sec) 
Heartbeat CPU 0 instructions: 280000004 cycles: 175080564 heartbeat IPC: 1.66387 cumulative IPC: 1.59838 (Simulation time: 0 hr 26 min 43 sec) 
Heartbeat CPU 0 instructions: 290000003 cycles: 181177846 heartbeat IPC: 1.64007 cumulative IPC: 1.59978 (Simulation time: 0 hr 27 min 54 sec) 
Heartbeat CPU 0 instructions: 300000004 cycles: 187449346 heartbeat IPC: 1.59452 cumulative IPC: 1.59961 (Simulation time: 0 hr 28 min 55 sec) 
Heartbeat CPU 0 instructions: 310000001 cycles: 195516114 heartbeat IPC: 1.23965 cumulative IPC: 1.58471 (Simulation time: 0 hr 30 min 0 sec) 
Heartbeat CPU 0 instructions: 320000001 cycles: 201494240 heartbeat IPC: 1.67277 cumulative IPC: 1.58733 (Simulation time: 0 hr 31 min 12 sec) 
Heartbeat CPU 0 instructions: 330000001 cycles: 207673470 heartbeat IPC: 1.61832 cumulative IPC: 1.58826 (Simulation time: 0 hr 32 min 24 sec) 
Heartbeat CPU 0 instructions: 340000001 cycles: 214290536 heartbeat IPC: 1.51124 cumulative IPC: 1.58587 (Simulation time: 0 hr 33 min 26 sec) 
Heartbeat CPU 0 instructions: 350000000 cycles: 222584016 heartbeat IPC: 1.20577 cumulative IPC: 1.57168 (Simulation time: 0 hr 34 min 30 sec) 
Heartbeat CPU 0 instructions: 360000000 cycles: 228870313 heartbeat IPC: 1.59076 cumulative IPC: 1.5722 (Simulation time: 0 hr 35 min 42 sec) 
Heartbeat CPU 0 instructions: 370000004 cycles: 234993586 heartbeat IPC: 1.63311 cumulative IPC: 1.57379 (Simulation time: 0 hr 36 min 56 sec) 
Heartbeat CPU 0 instructions: 380000000 cycles: 241140389 heartbeat IPC: 1.62686 cumulative IPC: 1.57515 (Simulation time: 0 hr 38 min 0 sec) 
Heartbeat CPU 0 instructions: 390000004 cycles: 249197098 heartbeat IPC: 1.2412 cumulative IPC: 1.56433 (Simulation time: 0 hr 39 min 4 sec) 
Heartbeat CPU 0 instructions: 400000003 cycles: 255933274 heartbeat IPC: 1.48452 cumulative IPC: 1.56222 (Simulation time: 0 hr 40 min 14 sec) 
Heartbeat CPU 0 instructions: 410000003 cycles: 261999588 heartbeat IPC: 1.64845 cumulative IPC: 1.56423 (Simulation time: 0 hr 41 min 26 sec) 
Heartbeat CPU 0 instructions: 420000003 cycles: 267963057 heartbeat IPC: 1.67688 cumulative IPC: 1.56674 (Simulation time: 0 hr 42 min 32 sec) 
Heartbeat CPU 0 instructions: 430000001 cycles: 275748375 heartbeat IPC: 1.28447 cumulative IPC: 1.55875 (Simulation time: 0 hr 43 min 35 sec) 
Heartbeat CPU 0 instructions: 440000003 cycles: 283151706 heartbeat IPC: 1.35074 cumulative IPC: 1.5533 (Simulation time: 0 hr 44 min 40 sec) 
Heartbeat CPU 0 instructions: 450000003 cycles: 289190044 heartbeat IPC: 1.65608 cumulative IPC: 1.55545 (Simulation time: 0 hr 45 min 53 sec) 
Heartbeat CPU 0 instructions: 460000004 cycles: 295133296 heartbeat IPC: 1.68258 cumulative IPC: 1.55802 (Simulation time: 0 hr 47 min 3 sec) 
Heartbeat CPU 0 instructions: 470000000 cycles: 301764637 heartbeat IPC: 1.50799 cumulative IPC: 1.55692 (Simulation time: 0 hr 48 min 3 sec) 
Heartbeat CPU 0 instructions: 480000000 cycles: 309180386 heartbeat IPC: 1.34848 cumulative IPC: 1.55191 (Simulation time: 0 hr 49 min 9 sec) 
Heartbeat CPU 0 instructions: 490000003 cycles: 315142928 heartbeat IPC: 1.67714 cumulative IPC: 1.55428 (Simulation time: 0 hr 50 min 18 sec) 
Heartbeat CPU 0 instructions: 500000004 cycles: 321167406 heartbeat IPC: 1.6599 cumulative IPC: 1.55627 (Simulation time: 0 hr 51 min 27 sec) 
Heartbeat CPU 0 instructions: 510000003 cycles: 327617029 heartbeat IPC: 1.55048 cumulative IPC: 1.55615 (Simulation time: 0 hr 52 min 24 sec) 
Heartbeat CPU 0 instructions: 520000004 cycles: 334878147 heartbeat IPC: 1.3772 cumulative IPC: 1.55227 (Simulation time: 0 hr 53 min 22 sec) 
Heartbeat CPU 0 instructions: 530000003 cycles: 339932779 heartbeat IPC: 1.97838 cumulative IPC: 1.55861 (Simulation time: 0 hr 54 min 15 sec) 
Heartbeat CPU 0 instructions: 540000001 cycles: 344994547 heartbeat IPC: 1.97559 cumulative IPC: 1.56474 (Simulation time: 0 hr 55 min 7 sec) 
Heartbeat CPU 0 instructions: 550000003 cycles: 350215368 heartbeat IPC: 1.91541 cumulative IPC: 1.56998 (Simulation time: 0 hr 56 min 3 sec) 
Heartbeat CPU 0 instructions: 560000004 cycles: 356136273 heartbeat IPC: 1.68893 cumulative IPC: 1.57196 (Simulation time: 0 hr 56 min 59 sec) 
Heartbeat CPU 0 instructions: 570000002 cycles: 363640663 heartbeat IPC: 1.33255 cumulative IPC: 1.56701 (Simulation time: 0 hr 57 min 58 sec) 
Heartbeat CPU 0 instructions: 580000000 cycles: 368792681 heartbeat IPC: 1.94099 cumulative IPC: 1.57224 (Simulation time: 0 hr 58 min 51 sec) 
Heartbeat CPU 0 instructions: 590000001 cycles: 373914545 heartbeat IPC: 1.95241 cumulative IPC: 1.57746 (Simulation time: 0 hr 59 min 45 sec) 
Heartbeat CPU 0 instructions: 600000003 cycles: 379152611 heartbeat IPC: 1.9091 cumulative IPC: 1.58204 (Simulation time: 1 hr 0 min 41 sec) 
Heartbeat CPU 0 instructions: 610000001 cycles: 385069811 heartbeat IPC: 1.68999 cumulative IPC: 1.5837 (Simulation time: 1 hr 1 min 34 sec) 
Heartbeat CPU 0 instructions: 620000004 cycles: 392703485 heartbeat IPC: 1.30999 cumulative IPC: 1.57838 (Simulation time: 1 hr 2 min 31 sec) 
Heartbeat CPU 0 instructions: 630000003 cycles: 398831329 heartbeat IPC: 1.6319 cumulative IPC: 1.5792 (Simulation time: 1 hr 3 min 39 sec) 
Heartbeat CPU 0 instructions: 640000001 cycles: 404911744 heartbeat IPC: 1.64462 cumulative IPC: 1.58018 (Simulation time: 1 hr 4 min 49 sec) 
Heartbeat CPU 0 instructions: 650000000 cycles: 410893868 heartbeat IPC: 1.67165 cumulative IPC: 1.58152 (Simulation time: 1 hr 5 min 48 sec) 
Heartbeat CPU 0 instructions: 660000000 cycles: 417688455 heartbeat IPC: 1.47176 cumulative IPC: 1.57973 (Simulation time: 1 hr 6 min 46 sec) 
Heartbeat CPU 0 instructions: 670000001 cycles: 424738569 heartbeat IPC: 1.41842 cumulative IPC: 1.57705 (Simulation time: 1 hr 7 min 49 sec) 
Heartbeat CPU 0 instructions: 680000004 cycles: 430727612 heartbeat IPC: 1.66972 cumulative IPC: 1.57834 (Simulation time: 1 hr 8 min 53 sec) 
Heartbeat CPU 0 instructions: 690000003 cycles: 436586499 heartbeat IPC: 1.70681 cumulative IPC: 1.58006 (Simulation time: 1 hr 9 min 55 sec) 
Heartbeat CPU 0 instructions: 700000003 cycles: 444011827 heartbeat IPC: 1.34674 cumulative IPC: 1.57616 (Simulation time: 1 hr 10 min 48 sec) 
Heartbeat CPU 0 instructions: 710000001 cycles: 451768193 heartbeat IPC: 1.28926 cumulative IPC: 1.57123 (Simulation time: 1 hr 11 min 46 sec) 
Heartbeat CPU 0 instructions: 720000003 cycles: 457749410 heartbeat IPC: 1.6719 cumulative IPC: 1.57254 (Simulation time: 1 hr 12 min 52 sec) 
Heartbeat CPU 0 instructions: 730000000 cycles: 463894331 heartbeat IPC: 1.62736 cumulative IPC: 1.57327 (Simulation time: 1 hr 13 min 57 sec) 
Heartbeat CPU 0 instructions: 740000001 cycles: 469708925 heartbeat IPC: 1.71981 cumulative IPC: 1.57509 (Simulation time: 1 hr 14 min 49 sec) 
Heartbeat CPU 0 instructions: 750000002 cycles: 477486282 heartbeat IPC: 1.28578 cumulative IPC: 1.57037 (Simulation time: 1 hr 15 min 48 sec) 
Heartbeat CPU 0 instructions: 760000002 cycles: 483438666 heartbeat IPC: 1.68 cumulative IPC: 1.57172 (Simulation time: 1 hr 16 min 50 sec) 
Heartbeat CPU 0 instructions: 770000001 cycles: 489606097 heartbeat IPC: 1.62142 cumulative IPC: 1.57235 (Simulation time: 1 hr 17 min 57 sec) 
Heartbeat CPU 0 instructions: 780000000 cycles: 495731792 heartbeat IPC: 1.63247 cumulative IPC: 1.57309 (Simulation time: 1 hr 18 min 54 sec) 
Heartbeat CPU 0 instructions: 790000000 cycles: 503582427 heartbeat IPC: 1.27378 cumulative IPC: 1.56842 (Simulation time: 1 hr 19 min 53 sec) 
Heartbeat CPU 0 instructions: 800000002 cycles: 509787297 heartbeat IPC: 1.61164 cumulative IPC: 1.56895 (Simulation time: 1 hr 20 min 56 sec) 
Heartbeat CPU 0 instructions: 810000004 cycles: 515849662 heartbeat IPC: 1.64952 cumulative IPC: 1.56989 (Simulation time: 1 hr 22 min 2 sec) 
Heartbeat CPU 0 instructions: 820000000 cycles: 522026455 heartbeat IPC: 1.61896 cumulative IPC: 1.57048 (Simulation time: 1 hr 23 min 0 sec) 
Heartbeat CPU 0 instructions: 830000004 cycles: 529762852 heartbeat IPC: 1.29259 cumulative IPC: 1.56641 (Simulation time: 1 hr 23 min 55 sec) 
Heartbeat CPU 0 instructions: 840000002 cycles: 536416618 heartbeat IPC: 1.50291 cumulative IPC: 1.56562 (Simulation time: 1 hr 25 min 0 sec) 
Heartbeat CPU 0 instructions: 850000002 cycles: 542442583 heartbeat IPC: 1.65949 cumulative IPC: 1.56667 (Simulation time: 1 hr 26 min 6 sec) 
Heartbeat CPU 0 instructions: 860000004 cycles: 548147691 heartbeat IPC: 1.75282 cumulative IPC: 1.56861 (Simulation time: 1 hr 27 min 5 sec) 
Heartbeat CPU 0 instructions: 870000004 cycles: 555490844 heartbeat IPC: 1.36181 cumulative IPC: 1.56587 (Simulation time: 1 hr 28 min 4 sec) 
Heartbeat CPU 0 instructions: 880000003 cycles: 562611847 heartbeat IPC: 1.4043 cumulative IPC: 1.56382 (Simulation time: 1 hr 29 min 9 sec) 
Heartbeat CPU 0 instructions: 890000002 cycles: 568598565 heartbeat IPC: 1.67036 cumulative IPC: 1.56495 (Simulation time: 1 hr 30 min 18 sec) 
Heartbeat CPU 0 instructions: 900000001 cycles: 574395248 heartbeat IPC: 1.72512 cumulative IPC: 1.56657 (Simulation time: 1 hr 31 min 23 sec) 
Heartbeat CPU 0 instructions: 910000002 cycles: 580943543 heartbeat IPC: 1.52712 cumulative IPC: 1.56612 (Simulation time: 1 hr 32 min 24 sec) 
Heartbeat CPU 0 instructions: 920000002 cycles: 588483447 heartbeat IPC: 1.32628 cumulative IPC: 1.56304 (Simulation time: 1 hr 33 min 29 sec) 
Heartbeat CPU 0 instructions: 930000002 cycles: 594416328 heartbeat IPC: 1.68552 cumulative IPC: 1.56427 (Simulation time: 1 hr 34 min 40 sec) 
Heartbeat CPU 0 instructions: 940000004 cycles: 600446981 heartbeat IPC: 1.6582 cumulative IPC: 1.56521 (Simulation time: 1 hr 35 min 50 sec) 
Heartbeat CPU 0 instructions: 950000000 cycles: 607127799 heartbeat IPC: 1.49682 cumulative IPC: 1.56446 (Simulation time: 1 hr 36 min 47 sec) 
Heartbeat CPU 0 instructions: 960000002 cycles: 614781943 heartbeat IPC: 1.30648 cumulative IPC: 1.56124 (Simulation time: 1 hr 37 min 50 sec) 
Heartbeat CPU 0 instructions: 970000003 cycles: 620735075 heartbeat IPC: 1.67979 cumulative IPC: 1.56238 (Simulation time: 1 hr 38 min 56 sec) 
Heartbeat CPU 0 instructions: 980000003 cycles: 626858037 heartbeat IPC: 1.6332 cumulative IPC: 1.56307 (Simulation time: 1 hr 40 min 5 sec) 
Heartbeat CPU 0 instructions: 990000002 cycles: 632784728 heartbeat IPC: 1.68728 cumulative IPC: 1.56424 (Simulation time: 1 hr 40 min 57 sec) 
Heartbeat CPU 0 instructions: 1000000004 cycles: 640853085 heartbeat IPC: 1.23941 cumulative IPC: 1.56015 (Simulation time: 1 hr 41 min 55 sec) 
Finished CPU 0 instructions: 1000000003 cycles: 640853353 cumulative IPC: 1.56042 (Simulation time: 1 hr 42 min 0 sec) 

ChampSim completed all CPUs

Region of Interest Statistics

CPU 0 cumulative IPC: 1.56042 instructions: 1000000003 cycles: 640853353
cpu0_DTLB TOTAL     ACCESS:  250273097  HIT:  249954338  MISS:     318759
cpu0_DTLB LOAD      ACCESS:  205445406  HIT:  205167021  MISS:     278385
cpu0_DTLB RFO       ACCESS:   44827691  HIT:   44787317  MISS:      40374
cpu0_DTLB PREFETCH  ACCESS:          0  HIT:          0  MISS:          0
cpu0_DTLB WRITEBACK ACCESS:          0  HIT:          0  MISS:          0
cpu0_DTLB TRANSLATION ACCESS:          0  HIT:          0  MISS:          0
cpu0_DTLB PREFETCH  REQUESTED:          0  ISSUED:          0  USEFUL:          0  USELESS:          0
cpu0_DTLB AVERAGE MISS LATENCY: 10.4281 cycles
cpu0_ITLB TOTAL     ACCESS:   66879212  HIT:   66879013  MISS:        199
cpu0_ITLB LOAD      ACCESS:   66879212  HIT:   66879013  MISS:        199
cpu0_ITLB RFO       ACCESS:          0  HIT:          0  MISS:          0
cpu0_ITLB PREFETCH  ACCESS:          0  HIT:          0  MISS:          0
cpu0_ITLB WRITEBACK ACCESS:          0  HIT:          0  MISS:          0
cpu0_ITLB TRANSLATION ACCESS:          0  HIT:          0  MISS:          0
cpu0_ITLB PREFETCH  REQUESTED:          0  ISSUED:          0  USEFUL:          0  USELESS:          0
cpu0_ITLB AVERAGE MISS LATENCY: 109.814 cycles
cpu0_L1I TOTAL     ACCESS:   37301807  HIT:   37232732  MISS:      69075
cpu0_L1I LOAD      ACCESS:   37301807  HIT:   37232732  MISS:      69075
cpu0_L1I RFO       ACCESS:          0  HIT:          0  MISS:          0
cpu0_L1I PREFETCH  ACCESS:          0  HIT:          0  MISS:          0
cpu0_L1I WRITEBACK ACCESS:          0  HIT:          0  MISS:          0
cpu0_L1I TRANSLATION ACCESS:          0  HIT:          0  MISS:          0
cpu0_L1I PREFETCH  REQUESTED:          0  ISSUED:          0  USEFUL:          0  USELESS:          0
cpu0_L1I AVERAGE MISS LATENCY: 171.573 cycles
cpu0_STLB TOTAL     ACCESS:     318958  HIT:     314152  MISS:       4806
cpu0_STLB LOAD      ACCESS:     278584  HIT:     275326  MISS:       3258
cpu0_STLB RFO       ACCESS:      40374  HIT:      38826  MISS:       1548
cpu0_STLB PREFETCH  ACCESS:          0  HIT:          0  MISS:          0
cpu0_STLB WRITEBACK ACCESS:          0  HIT:          0  MISS:          0
cpu0_STLB TRANSLATION ACCESS:          0  HIT:          0  MISS:          0
cpu0_STLB PREFETCH  REQUESTED:          0  ISSUED:          0  USEFUL:          0  USELESS:          0
cpu0_STLB AVERAGE MISS LATENCY: 98.2457 cycles
cpu0_L1D TOTAL     ACCESS:  455915539  HIT:  452142396  MISS:    3773143
cpu0_L1D LOAD      ACCESS:  197334207  HIT:  196101768  MISS:    1232439
cpu0_L1D RFO       ACCESS:   68682524  HIT:   67921620  MISS:     760904
cpu0_L1D PREFETCH  ACCESS:  189894179  HIT:  188116117  MISS:    1778062
cpu0_L1D WRITEBACK ACCESS:          0  HIT:          0  MISS:          0
cpu0_L1D TRANSLATION ACCESS:       4629  HIT:       2891  MISS:       1738
cpu0_L1D PREFETCH  REQUESTED:  198913354  ISSUED:  195752204  USEFUL:    2125216  USELESS:     161293
cpu0_L1D AVERAGE MISS LATENCY: 82.8031 cycles
cpu0_L2C TOTAL     ACCESS:    6004952  HIT:    3882130  MISS:    2122822
cpu0_L2C LOAD      ACCESS:     794504  HIT:     495690  MISS:     298814
cpu0_L2C RFO       ACCESS:     759288  HIT:      60985  MISS:     698303
cpu0_L2C PREFETCH  ACCESS:    3634082  HIT:    2511917  MISS:    1122165
cpu0_L2C WRITEBACK ACCESS:     815340  HIT:     812357  MISS:       2983
cpu0_L2C TRANSLATION ACCESS:       1738  HIT:       1181  MISS:        557
cpu0_L2C PREFETCH  REQUESTED:    1447517  ISSUED:    1442501  USEFUL:      54946  USELESS:      22988
cpu0_L2C AVERAGE MISS LATENCY: 178.436 cycles
LLC TOTAL     ACCESS:    2837090  HIT:    1959696  MISS:     877394
LLC LOAD      ACCESS:     298810  HIT:     208142  MISS:      90668
LLC RFO       ACCESS:     698302  HIT:     348952  MISS:     349350
LLC PREFETCH  ACCESS:    1123761  HIT:     687341  MISS:     436420
LLC WRITEBACK ACCESS:     715660  HIT:     714802  MISS:        858
LLC TRANSLATION ACCESS:        557  HIT:        459  MISS:         98
LLC PREFETCH  REQUESTED:          0  ISSUED:          0  USEFUL:          0  USELESS:          0
LLC AVERAGE MISS LATENCY: 367.545 cycles

DRAM Statistics
 CHANNEL 0
 RQ ROW_BUFFER_HIT:     164032  ROW_BUFFER_MISS:     712238
 DBUS AVG_CONGESTED_CYCLE:    3.93538
 WQ ROW_BUFFER_HIT:      67310  ROW_BUFFER_MISS:     416461  FULL:          0


CPU 0 Branch Prediction Accuracy: 94.4853% MPKI: 5.1234 Average ROB Occupancy at Mispredict: 77.3267
Branch type MPKI
BRANCH_DIRECT_JUMP: 0.000262
BRANCH_INDIRECT: 0.001169
BRANCH_CONDITIONAL: 5.07871
BRANCH_DIRECT_CALL: 0.04125
BRANCH_INDIRECT_CALL: 0.000229
BRANCH_RETURN: 0.001775

