
*** ChampSim Multicore Out-of-Order Simulator ***

Warmup Instructions: 1000000
Simulation Instructions: 1000000000
Number of CPUs: 1
Off-chip DRAM Size: 4 GiB Channels: 1 Width: 64-bit Data Rate: 3200 MT/s

VirtualMemory physical capacity: 8588881920 num_ppages: 2096895
VirtualMemory page size: 4096 log2_page_size: 12

CPU 0 runs tracer/pin/traces/spec2k6/465.tonto-1914B.champsimtrace.xz
Basic BTB sets: 1024 ways: 8 indirect buffer size: 4096 RAS size: 64
cpu0_L1D next line prefetcher
cpu0_L2C IP-based stride prefetcher
WARNING: The extended signature CACHE::prefetch_line(ip, base_addr, pf_addr, fill_this_level, prefetch_metadata) is deprecated.
WARNING: Use CACHE::prefetch_line(pf_addr, fill_this_level, prefetch_metadata) instead.

Warmup complete CPU 0 instructions: 1000004 cycles: 285486 (Simulation time: 0 hr 0 min 4 sec) 

Heartbeat CPU 0 instructions: 10000000 cycles: 6296178 heartbeat IPC: 1.58827 cumulative IPC: 1.49733 (Simulation time: 0 hr 0 min 55 sec) 
Heartbeat CPU 0 instructions: 20000004 cycles: 12651519 heartbeat IPC: 1.57348 cumulative IPC: 1.53647 (Simulation time: 0 hr 1 min 51 sec) 
Heartbeat CPU 0 instructions: 30000003 cycles: 18448275 heartbeat IPC: 1.7251 cumulative IPC: 1.59667 (Simulation time: 0 hr 2 min 40 sec) 
Heartbeat CPU 0 instructions: 40000002 cycles: 24187318 heartbeat IPC: 1.74245 cumulative IPC: 1.63167 (Simulation time: 0 hr 3 min 29 sec) 
Heartbeat CPU 0 instructions: 50000002 cycles: 30371332 heartbeat IPC: 1.61707 cumulative IPC: 1.62867 (Simulation time: 0 hr 4 min 22 sec) 
Heartbeat CPU 0 instructions: 60000000 cycles: 36650273 heartbeat IPC: 1.59262 cumulative IPC: 1.62245 (Simulation time: 0 hr 5 min 18 sec) 
Heartbeat CPU 0 instructions: 70000002 cycles: 42791625 heartbeat IPC: 1.62831 cumulative IPC: 1.62329 (Simulation time: 0 hr 6 min 12 sec) 
Heartbeat CPU 0 instructions: 80000000 cycles: 48798330 heartbeat IPC: 1.66481 cumulative IPC: 1.62843 (Simulation time: 0 hr 7 min 6 sec) 
Heartbeat CPU 0 instructions: 90000002 cycles: 54546469 heartbeat IPC: 1.73969 cumulative IPC: 1.64022 (Simulation time: 0 hr 7 min 56 sec) 
Heartbeat CPU 0 instructions: 100000003 cycles: 60310496 heartbeat IPC: 1.7349 cumulative IPC: 1.64931 (Simulation time: 0 hr 8 min 48 sec) 
Heartbeat CPU 0 instructions: 110000000 cycles: 66259364 heartbeat IPC: 1.68099 cumulative IPC: 1.65217 (Simulation time: 0 hr 9 min 39 sec) 
Heartbeat CPU 0 instructions: 120000002 cycles: 72829492 heartbeat IPC: 1.52204 cumulative IPC: 1.64038 (Simulation time: 0 hr 10 min 40 sec) 
Heartbeat CPU 0 instructions: 130000003 cycles: 79197242 heartbeat IPC: 1.57041 cumulative IPC: 1.63474 (Simulation time: 0 hr 11 min 41 sec) 
Heartbeat CPU 0 instructions: 140000004 cycles: 85457113 heartbeat IPC: 1.59748 cumulative IPC: 1.632 (Simulation time: 0 hr 12 min 40 sec) 
Heartbeat CPU 0 instructions: 150000001 cycles: 91585091 heartbeat IPC: 1.63186 cumulative IPC: 1.63199 (Simulation time: 0 hr 13 min 37 sec) 
Heartbeat CPU 0 instructions: 160000002 cycles: 97283658 heartbeat IPC: 1.75483 cumulative IPC: 1.63921 (Simulation time: 0 hr 14 min 28 sec) 
Heartbeat CPU 0 instructions: 170000000 cycles: 103055351 heartbeat IPC: 1.73259 cumulative IPC: 1.64445 (Simulation time: 0 hr 15 min 20 sec) 
Heartbeat CPU 0 instructions: 180000004 cycles: 108771775 heartbeat IPC: 1.74935 cumulative IPC: 1.64998 (Simulation time: 0 hr 16 min 12 sec) 
Heartbeat CPU 0 instructions: 190000002 cycles: 114475579 heartbeat IPC: 1.75322 cumulative IPC: 1.65513 (Simulation time: 0 hr 17 min 4 sec) 
Heartbeat CPU 0 instructions: 200000000 cycles: 120739366 heartbeat IPC: 1.59648 cumulative IPC: 1.65208 (Simulation time: 0 hr 18 min 2 sec) 
Heartbeat CPU 0 instructions: 210000001 cycles: 127167966 heartbeat IPC: 1.55555 cumulative IPC: 1.64719 (Simulation time: 0 hr 19 min 8 sec) 
Heartbeat CPU 0 instructions: 220000004 cycles: 133407204 heartbeat IPC: 1.60276 cumulative IPC: 1.64511 (Simulation time: 0 hr 20 min 10 sec) 
Heartbeat CPU 0 instructions: 230000003 cycles: 139358121 heartbeat IPC: 1.68041 cumulative IPC: 1.64662 (Simulation time: 0 hr 21 min 11 sec) 
Heartbeat CPU 0 instructions: 240000000 cycles: 145281365 heartbeat IPC: 1.68826 cumulative IPC: 1.64832 (Simulation time: 0 hr 22 min 12 sec) 
Heartbeat CPU 0 instructions: 250000001 cycles: 151281898 heartbeat IPC: 1.66652 cumulative IPC: 1.64905 (Simulation time: 0 hr 23 min 10 sec) 
Heartbeat CPU 0 instructions: 260000002 cycles: 157230996 heartbeat IPC: 1.68093 cumulative IPC: 1.65025 (Simulation time: 0 hr 24 min 12 sec) 
Heartbeat CPU 0 instructions: 270000004 cycles: 163103010 heartbeat IPC: 1.70299 cumulative IPC: 1.65216 (Simulation time: 0 hr 25 min 11 sec) 
Heartbeat CPU 0 instructions: 280000003 cycles: 169204610 heartbeat IPC: 1.63891 cumulative IPC: 1.65168 (Simulation time: 0 hr 26 min 10 sec) 
Heartbeat CPU 0 instructions: 290000004 cycles: 175248924 heartbeat IPC: 1.65445 cumulative IPC: 1.65177 (Simulation time: 0 hr 27 min 13 sec) 
Heartbeat CPU 0 instructions: 300000004 cycles: 181125133 heartbeat IPC: 1.70178 cumulative IPC: 1.6534 (Simulation time: 0 hr 28 min 14 sec) 
Heartbeat CPU 0 instructions: 310000002 cycles: 187035361 heartbeat IPC: 1.69198 cumulative IPC: 1.65462 (Simulation time: 0 hr 29 min 12 sec) 
Heartbeat CPU 0 instructions: 320000002 cycles: 193106655 heartbeat IPC: 1.6471 cumulative IPC: 1.65438 (Simulation time: 0 hr 30 min 12 sec) 
Heartbeat CPU 0 instructions: 330000001 cycles: 199150151 heartbeat IPC: 1.65467 cumulative IPC: 1.65439 (Simulation time: 0 hr 31 min 12 sec) 
Heartbeat CPU 0 instructions: 340000000 cycles: 205041227 heartbeat IPC: 1.69748 cumulative IPC: 1.65563 (Simulation time: 0 hr 32 min 11 sec) 
Heartbeat CPU 0 instructions: 350000004 cycles: 210993115 heartbeat IPC: 1.68014 cumulative IPC: 1.65632 (Simulation time: 0 hr 33 min 13 sec) 
Heartbeat CPU 0 instructions: 360000002 cycles: 216889903 heartbeat IPC: 1.69584 cumulative IPC: 1.6574 (Simulation time: 0 hr 34 min 11 sec) 
Heartbeat CPU 0 instructions: 370000001 cycles: 222907909 heartbeat IPC: 1.66168 cumulative IPC: 1.65751 (Simulation time: 0 hr 35 min 13 sec) 
Heartbeat CPU 0 instructions: 380000004 cycles: 228770986 heartbeat IPC: 1.70559 cumulative IPC: 1.65875 (Simulation time: 0 hr 36 min 13 sec) 
Heartbeat CPU 0 instructions: 390000001 cycles: 234746370 heartbeat IPC: 1.67353 cumulative IPC: 1.65913 (Simulation time: 0 hr 37 min 11 sec) 
Heartbeat CPU 0 instructions: 400000000 cycles: 240836741 heartbeat IPC: 1.64194 cumulative IPC: 1.65869 (Simulation time: 0 hr 38 min 13 sec) 
Heartbeat CPU 0 instructions: 410000000 cycles: 246746454 heartbeat IPC: 1.69213 cumulative IPC: 1.65949 (Simulation time: 0 hr 39 min 15 sec) 
Heartbeat CPU 0 instructions: 420000001 cycles: 252600948 heartbeat IPC: 1.70809 cumulative IPC: 1.66062 (Simulation time: 0 hr 40 min 13 sec) 
Heartbeat CPU 0 instructions: 430000003 cycles: 258573291 heartbeat IPC: 1.67439 cumulative IPC: 1.66094 (Simulation time: 0 hr 41 min 12 sec) 
Heartbeat CPU 0 instructions: 440000001 cycles: 264647948 heartbeat IPC: 1.64618 cumulative IPC: 1.6606 (Simulation time: 0 hr 42 min 13 sec) 
Heartbeat CPU 0 instructions: 450000001 cycles: 270586702 heartbeat IPC: 1.68385 cumulative IPC: 1.66111 (Simulation time: 0 hr 43 min 14 sec) 
Heartbeat CPU 0 instructions: 460000003 cycles: 276213170 heartbeat IPC: 1.77731 cumulative IPC: 1.66348 (Simulation time: 0 hr 44 min 9 sec) 
Heartbeat CPU 0 instructions: 470000003 cycles: 282251620 heartbeat IPC: 1.65605 cumulative IPC: 1.66332 (Simulation time: 0 hr 45 min 9 sec) 
Heartbeat CPU 0 instructions: 480000003 cycles: 288034124 heartbeat IPC: 1.72935 cumulative IPC: 1.66465 (Simulation time: 0 hr 46 min 11 sec) 
Heartbeat CPU 0 instructions: 490000003 cycles: 293673117 heartbeat IPC: 1.77337 cumulative IPC: 1.66674 (Simulation time: 0 hr 47 min 6 sec) 
Heartbeat CPU 0 instructions: 500000001 cycles: 299562314 heartbeat IPC: 1.69802 cumulative IPC: 1.66735 (Simulation time: 0 hr 48 min 3 sec) 
Heartbeat CPU 0 instructions: 510000000 cycles: 305590581 heartbeat IPC: 1.65885 cumulative IPC: 1.66718 (Simulation time: 0 hr 49 min 3 sec) 
Heartbeat CPU 0 instructions: 520000001 cycles: 311475863 heartbeat IPC: 1.69915 cumulative IPC: 1.66779 (Simulation time: 0 hr 50 min 4 sec) 
Heartbeat CPU 0 instructions: 530000000 cycles: 317177395 heartbeat IPC: 1.75391 cumulative IPC: 1.66934 (Simulation time: 0 hr 51 min 4 sec) 
Heartbeat CPU 0 instructions: 540000004 cycles: 322862312 heartbeat IPC: 1.75904 cumulative IPC: 1.67092 (Simulation time: 0 hr 51 min 58 sec) 
Heartbeat CPU 0 instructions: 550000001 cycles: 328663900 heartbeat IPC: 1.72367 cumulative IPC: 1.67185 (Simulation time: 0 hr 52 min 52 sec) 
Heartbeat CPU 0 instructions: 560000002 cycles: 334813314 heartbeat IPC: 1.62617 cumulative IPC: 1.67101 (Simulation time: 0 hr 53 min 52 sec) 
Heartbeat CPU 0 instructions: 570000002 cycles: 340851675 heartbeat IPC: 1.65608 cumulative IPC: 1.67075 (Simulation time: 0 hr 54 min 51 sec) 
Heartbeat CPU 0 instructions: 580000004 cycles: 346702393 heartbeat IPC: 1.70919 cumulative IPC: 1.6714 (Simulation time: 0 hr 55 min 53 sec) 
Heartbeat CPU 0 instructions: 590000001 cycles: 352524973 heartbeat IPC: 1.71745 cumulative IPC: 1.67216 (Simulation time: 0 hr 56 min 53 sec) 
Heartbeat CPU 0 instructions: 600000004 cycles: 358157156 heartbeat IPC: 1.77551 cumulative IPC: 1.67378 (Simulation time: 0 hr 57 min 52 sec) 
Heartbeat CPU 0 instructions: 610000001 cycles: 363990633 heartbeat IPC: 1.71424 cumulative IPC: 1.67443 (Simulation time: 0 hr 58 min 48 sec) 
Heartbeat CPU 0 instructions: 620000000 cycles: 369727199 heartbeat IPC: 1.7432 cumulative IPC: 1.6755 (Simulation time: 0 hr 59 min 45 sec) 
Heartbeat CPU 0 instructions: 630000002 cycles: 375644595 heartbeat IPC: 1.68993 cumulative IPC: 1.67573 (Simulation time: 1 hr 0 min 44 sec) 
Heartbeat CPU 0 instructions: 640000004 cycles: 381813943 heartbeat IPC: 1.62092 cumulative IPC: 1.67484 (Simulation time: 1 hr 1 min 45 sec) 
Heartbeat CPU 0 instructions: 650000002 cycles: 387672178 heartbeat IPC: 1.707 cumulative IPC: 1.67533 (Simulation time: 1 hr 2 min 42 sec) 
Heartbeat CPU 0 instructions: 660000002 cycles: 393546290 heartbeat IPC: 1.70238 cumulative IPC: 1.67573 (Simulation time: 1 hr 3 min 41 sec) 
Heartbeat CPU 0 instructions: 670000003 cycles: 399285215 heartbeat IPC: 1.74249 cumulative IPC: 1.67669 (Simulation time: 1 hr 4 min 32 sec) 
Heartbeat CPU 0 instructions: 680000001 cycles: 405240649 heartbeat IPC: 1.67914 cumulative IPC: 1.67673 (Simulation time: 1 hr 5 min 27 sec) 
Heartbeat CPU 0 instructions: 690000000 cycles: 410988916 heartbeat IPC: 1.73965 cumulative IPC: 1.67761 (Simulation time: 1 hr 6 min 24 sec) 
Heartbeat CPU 0 instructions: 700000003 cycles: 416655107 heartbeat IPC: 1.76485 cumulative IPC: 1.6788 (Simulation time: 1 hr 7 min 13 sec) 
Heartbeat CPU 0 instructions: 710000003 cycles: 422620014 heartbeat IPC: 1.67647 cumulative IPC: 1.67876 (Simulation time: 1 hr 8 min 6 sec) 
Heartbeat CPU 0 instructions: 720000003 cycles: 428590910 heartbeat IPC: 1.67479 cumulative IPC: 1.67871 (Simulation time: 1 hr 9 min 3 sec) 
Heartbeat CPU 0 instructions: 730000000 cycles: 434481557 heartbeat IPC: 1.69761 cumulative IPC: 1.67896 (Simulation time: 1 hr 10 min 0 sec) 
Heartbeat CPU 0 instructions: 740000003 cycles: 440124148 heartbeat IPC: 1.77224 cumulative IPC: 1.68016 (Simulation time: 1 hr 10 min 57 sec) 
Heartbeat CPU 0 instructions: 750000000 cycles: 445899814 heartbeat IPC: 1.7314 cumulative IPC: 1.68083 (Simulation time: 1 hr 11 min 49 sec) 
Heartbeat CPU 0 instructions: 760000000 cycles: 451675829 heartbeat IPC: 1.7313 cumulative IPC: 1.68147 (Simulation time: 1 hr 12 min 42 sec) 
Heartbeat CPU 0 instructions: 770000000 cycles: 457825752 heartbeat IPC: 1.62604 cumulative IPC: 1.68073 (Simulation time: 1 hr 13 min 38 sec) 
Heartbeat CPU 0 instructions: 780000000 cycles: 463817298 heartbeat IPC: 1.66902 cumulative IPC: 1.68058 (Simulation time: 1 hr 14 min 36 sec) 
Heartbeat CPU 0 instructions: 790000001 cycles: 469694034 heartbeat IPC: 1.70162 cumulative IPC: 1.68084 (Simulation time: 1 hr 15 min 33 sec) 
Heartbeat CPU 0 instructions: 800000000 cycles: 475436995 heartbeat IPC: 1.74126 cumulative IPC: 1.68157 (Simulation time: 1 hr 16 min 32 sec) 
Heartbeat CPU 0 instructions: 810000000 cycles: 481225997 heartbeat IPC: 1.72741 cumulative IPC: 1.68212 (Simulation time: 1 hr 17 min 29 sec) 
Heartbeat CPU 0 instructions: 820000002 cycles: 486863925 heartbeat IPC: 1.7737 cumulative IPC: 1.68318 (Simulation time: 1 hr 18 min 21 sec) 
Heartbeat CPU 0 instructions: 830000000 cycles: 492679632 heartbeat IPC: 1.71948 cumulative IPC: 1.68361 (Simulation time: 1 hr 19 min 14 sec) 
Heartbeat CPU 0 instructions: 840000001 cycles: 498632098 heartbeat IPC: 1.67998 cumulative IPC: 1.68357 (Simulation time: 1 hr 20 min 6 sec) 
Heartbeat CPU 0 instructions: 850000004 cycles: 504784228 heartbeat IPC: 1.62545 cumulative IPC: 1.68286 (Simulation time: 1 hr 21 min 3 sec) 
Heartbeat CPU 0 instructions: 860000002 cycles: 510610825 heartbeat IPC: 1.71627 cumulative IPC: 1.68324 (Simulation time: 1 hr 21 min 57 sec) 
Heartbeat CPU 0 instructions: 870000000 cycles: 516810445 heartbeat IPC: 1.613 cumulative IPC: 1.6824 (Simulation time: 1 hr 22 min 54 sec) 
Heartbeat CPU 0 instructions: 880000003 cycles: 522425250 heartbeat IPC: 1.78101 cumulative IPC: 1.68346 (Simulation time: 1 hr 23 min 49 sec) 
Heartbeat CPU 0 instructions: 890000001 cycles: 528367084 heartbeat IPC: 1.68298 cumulative IPC: 1.68345 (Simulation time: 1 hr 24 min 44 sec) 
Heartbeat CPU 0 instructions: 900000004 cycles: 534482500 heartbeat IPC: 1.63521 cumulative IPC: 1.6829 (Simulation time: 1 hr 25 min 45 sec) 
Heartbeat CPU 0 instructions: 910000002 cycles: 540449800 heartbeat IPC: 1.6758 cumulative IPC: 1.68282 (Simulation time: 1 hr 26 min 49 sec) 
Heartbeat CPU 0 instructions: 920000000 cycles: 546105222 heartbeat IPC: 1.76821 cumulative IPC: 1.68371 (Simulation time: 1 hr 27 min 51 sec) 
Heartbeat CPU 0 instructions: 930000002 cycles: 551893121 heartbeat IPC: 1.72774 cumulative IPC: 1.68417 (Simulation time: 1 hr 28 min 49 sec) 
Heartbeat CPU 0 instructions: 940000000 cycles: 557755753 heartbeat IPC: 1.70572 cumulative IPC: 1.68439 (Simulation time: 1 hr 29 min 46 sec) 
Heartbeat CPU 0 instructions: 950000001 cycles: 563961787 heartbeat IPC: 1.61134 cumulative IPC: 1.68359 (Simulation time: 1 hr 30 min 47 sec) 
Heartbeat CPU 0 instructions: 960000002 cycles: 570007172 heartbeat IPC: 1.65415 cumulative IPC: 1.68328 (Simulation time: 1 hr 31 min 46 sec) 
Heartbeat CPU 0 instructions: 970000004 cycles: 575908206 heartbeat IPC: 1.69462 cumulative IPC: 1.68339 (Simulation time: 1 hr 32 min 46 sec) 
Heartbeat CPU 0 instructions: 980000004 cycles: 581801267 heartbeat IPC: 1.69691 cumulative IPC: 1.68353 (Simulation time: 1 hr 33 min 45 sec) 
Heartbeat CPU 0 instructions: 990000003 cycles: 587458538 heartbeat IPC: 1.76764 cumulative IPC: 1.68434 (Simulation time: 1 hr 34 min 43 sec) 
Heartbeat CPU 0 instructions: 1000000000 cycles: 593189032 heartbeat IPC: 1.74505 cumulative IPC: 1.68493 (Simulation time: 1 hr 35 min 39 sec) 
Finished CPU 0 instructions: 1000000003 cycles: 593441182 cumulative IPC: 1.68509 (Simulation time: 1 hr 35 min 43 sec) 

ChampSim completed all CPUs

Region of Interest Statistics

CPU 0 cumulative IPC: 1.68509 instructions: 1000000003 cycles: 593441182
cpu0_DTLB TOTAL     ACCESS:  229190117  HIT:  228984323  MISS:     205794
cpu0_DTLB LOAD      ACCESS:  177725492  HIT:  177550830  MISS:     174662
cpu0_DTLB RFO       ACCESS:   51464625  HIT:   51433493  MISS:      31132
cpu0_DTLB PREFETCH  ACCESS:          0  HIT:          0  MISS:          0
cpu0_DTLB WRITEBACK ACCESS:          0  HIT:          0  MISS:          0
cpu0_DTLB TRANSLATION ACCESS:          0  HIT:          0  MISS:          0
cpu0_DTLB PREFETCH  REQUESTED:          0  ISSUED:          0  USEFUL:          0  USELESS:          0
cpu0_DTLB AVERAGE MISS LATENCY: 9.53367 cycles
cpu0_ITLB TOTAL     ACCESS:   67930323  HIT:   67871950  MISS:      58373
cpu0_ITLB LOAD      ACCESS:   67930323  HIT:   67871950  MISS:      58373
cpu0_ITLB RFO       ACCESS:          0  HIT:          0  MISS:          0
cpu0_ITLB PREFETCH  ACCESS:          0  HIT:          0  MISS:          0
cpu0_ITLB WRITEBACK ACCESS:          0  HIT:          0  MISS:          0
cpu0_ITLB TRANSLATION ACCESS:          0  HIT:          0  MISS:          0
cpu0_ITLB PREFETCH  REQUESTED:          0  ISSUED:          0  USEFUL:          0  USELESS:          0
cpu0_ITLB AVERAGE MISS LATENCY: 9.11399 cycles
cpu0_L1I TOTAL     ACCESS:   26593547  HIT:   25071319  MISS:    1522228
cpu0_L1I LOAD      ACCESS:   26593547  HIT:   25071319  MISS:    1522228
cpu0_L1I RFO       ACCESS:          0  HIT:          0  MISS:          0
cpu0_L1I PREFETCH  ACCESS:          0  HIT:          0  MISS:          0
cpu0_L1I WRITEBACK ACCESS:          0  HIT:          0  MISS:          0
cpu0_L1I TRANSLATION ACCESS:          0  HIT:          0  MISS:          0
cpu0_L1I PREFETCH  REQUESTED:          0  ISSUED:          0  USEFUL:          0  USELESS:          0
cpu0_L1I AVERAGE MISS LATENCY: 17.4717 cycles
cpu0_STLB TOTAL     ACCESS:     264167  HIT:     263678  MISS:        489
cpu0_STLB LOAD      ACCESS:     233035  HIT:     232603  MISS:        432
cpu0_STLB RFO       ACCESS:      31132  HIT:      31075  MISS:         57
cpu0_STLB PREFETCH  ACCESS:          0  HIT:          0  MISS:          0
cpu0_STLB WRITEBACK ACCESS:          0  HIT:          0  MISS:          0
cpu0_STLB TRANSLATION ACCESS:          0  HIT:          0  MISS:          0
cpu0_STLB PREFETCH  REQUESTED:          0  ISSUED:          0  USEFUL:          0  USELESS:          0
cpu0_STLB AVERAGE MISS LATENCY: 224.164 cycles
cpu0_L1D TOTAL     ACCESS:  476117551  HIT:  468456165  MISS:    7661386
cpu0_L1D LOAD      ACCESS:  197775151  HIT:  196510054  MISS:    1265097
cpu0_L1D RFO       ACCESS:   88121634  HIT:   84895564  MISS:    3226070
cpu0_L1D PREFETCH  ACCESS:  190220278  HIT:  187050391  MISS:    3169887
cpu0_L1D WRITEBACK ACCESS:          0  HIT:          0  MISS:          0
cpu0_L1D TRANSLATION ACCESS:        488  HIT:        156  MISS:        332
cpu0_L1D PREFETCH  REQUESTED:  197977236  ISSUED:  192426790  USEFUL:    3033323  USELESS:     269719
cpu0_L1D AVERAGE MISS LATENCY: 17.35 cycles
cpu0_L2C TOTAL     ACCESS:   16766791  HIT:   15375437  MISS:    1391354
cpu0_L2C LOAD      ACCESS:    2668185  HIT:    2269186  MISS:     398999
cpu0_L2C RFO       ACCESS:    3211352  HIT:    2589781  MISS:     621571
cpu0_L2C PREFETCH  ACCESS:    7026558  HIT:    6657772  MISS:     368786
cpu0_L2C WRITEBACK ACCESS:    3860364  HIT:    3858522  MISS:       1842
cpu0_L2C TRANSLATION ACCESS:        332  HIT:        176  MISS:        156
cpu0_L2C PREFETCH  REQUESTED:    3771050  ISSUED:    3729404  USEFUL:      54427  USELESS:      14393
cpu0_L2C AVERAGE MISS LATENCY: 33.3051 cycles
LLC TOTAL     ACCESS:    2103643  HIT:    2070418  MISS:      33225
LLC LOAD      ACCESS:     398966  HIT:     390377  MISS:       8589
LLC RFO       ACCESS:     621567  HIT:     617943  MISS:       3624
LLC PREFETCH  ACCESS:     369229  HIT:     348294  MISS:      20935
LLC WRITEBACK ACCESS:     713725  HIT:     713650  MISS:         75
LLC TRANSLATION ACCESS:        156  HIT:        154  MISS:          2
LLC PREFETCH  REQUESTED:          0  ISSUED:          0  USEFUL:          0  USELESS:          0
LLC AVERAGE MISS LATENCY: 265.813 cycles

DRAM Statistics
 CHANNEL 0
 RQ ROW_BUFFER_HIT:      10209  ROW_BUFFER_MISS:      22941
 DBUS AVG_CONGESTED_CYCLE:    3.65752
 WQ ROW_BUFFER_HIT:         66  ROW_BUFFER_MISS:        788  FULL:          0


CPU 0 Branch Prediction Accuracy: 92.4109% MPKI: 8.46361 Average ROB Occupancy at Mispredict: 86.2014
Branch type MPKI
BRANCH_DIRECT_JUMP: 0.000141
BRANCH_INDIRECT: 0.00483
BRANCH_CONDITIONAL: 8.45841
BRANCH_DIRECT_CALL: 0.000139
BRANCH_INDIRECT_CALL: 0
BRANCH_RETURN: 9.1e-05

