
*** ChampSim Multicore Out-of-Order Simulator ***

Warmup Instructions: 1000000
Simulation Instructions: 1000000000
Number of CPUs: 1
Off-chip DRAM Size: 4 GiB Channels: 1 Width: 64-bit Data Rate: 3200 MT/s

VirtualMemory physical capacity: 8588881920 num_ppages: 2096895
VirtualMemory page size: 4096 log2_page_size: 12

CPU 0 runs tracer/pin/traces/spec2k17/638.imagick_s-10316B.champsimtrace.xz
Basic BTB sets: 1024 ways: 8 indirect buffer size: 4096 RAS size: 64
cpu0_L1D next line prefetcher
cpu0_L2C IP-based stride prefetcher
WARNING: The extended signature CACHE::prefetch_line(ip, base_addr, pf_addr, fill_this_level, prefetch_metadata) is deprecated.
WARNING: Use CACHE::prefetch_line(pf_addr, fill_this_level, prefetch_metadata) instead.

Warmup complete CPU 0 instructions: 1000002 cycles: 250064 (Simulation time: 0 hr 0 min 2 sec) 

Heartbeat CPU 0 instructions: 10000002 cycles: 3857539 heartbeat IPC: 2.59233 cumulative IPC: 2.49482 (Simulation time: 0 hr 0 min 39 sec) 
Heartbeat CPU 0 instructions: 20000002 cycles: 7851142 heartbeat IPC: 2.504 cumulative IPC: 2.49965 (Simulation time: 0 hr 1 min 21 sec) 
Heartbeat CPU 0 instructions: 30000000 cycles: 11868192 heartbeat IPC: 2.48939 cumulative IPC: 2.4961 (Simulation time: 0 hr 2 min 2 sec) 
Heartbeat CPU 0 instructions: 40000002 cycles: 15907625 heartbeat IPC: 2.4756 cumulative IPC: 2.49081 (Simulation time: 0 hr 2 min 45 sec) 
Heartbeat CPU 0 instructions: 50000002 cycles: 19932255 heartbeat IPC: 2.4847 cumulative IPC: 2.48956 (Simulation time: 0 hr 3 min 27 sec) 
Heartbeat CPU 0 instructions: 60000000 cycles: 23942982 heartbeat IPC: 2.49331 cumulative IPC: 2.4902 (Simulation time: 0 hr 4 min 10 sec) 
Heartbeat CPU 0 instructions: 70000000 cycles: 27965706 heartbeat IPC: 2.48588 cumulative IPC: 2.48957 (Simulation time: 0 hr 4 min 54 sec) 
Heartbeat CPU 0 instructions: 80000001 cycles: 31966371 heartbeat IPC: 2.49958 cumulative IPC: 2.49083 (Simulation time: 0 hr 5 min 39 sec) 
Heartbeat CPU 0 instructions: 90000002 cycles: 35979609 heartbeat IPC: 2.49175 cumulative IPC: 2.49094 (Simulation time: 0 hr 6 min 24 sec) 
Heartbeat CPU 0 instructions: 100000001 cycles: 40021086 heartbeat IPC: 2.47434 cumulative IPC: 2.48925 (Simulation time: 0 hr 7 min 8 sec) 
Heartbeat CPU 0 instructions: 110000000 cycles: 44059511 heartbeat IPC: 2.47621 cumulative IPC: 2.48805 (Simulation time: 0 hr 7 min 51 sec) 
Heartbeat CPU 0 instructions: 120000000 cycles: 48121166 heartbeat IPC: 2.46205 cumulative IPC: 2.48584 (Simulation time: 0 hr 8 min 36 sec) 
Heartbeat CPU 0 instructions: 130000003 cycles: 52181843 heartbeat IPC: 2.46264 cumulative IPC: 2.48403 (Simulation time: 0 hr 9 min 21 sec) 
Heartbeat CPU 0 instructions: 140000001 cycles: 56261581 heartbeat IPC: 2.45114 cumulative IPC: 2.48163 (Simulation time: 0 hr 10 min 6 sec) 
Heartbeat CPU 0 instructions: 150000000 cycles: 60362595 heartbeat IPC: 2.43842 cumulative IPC: 2.47868 (Simulation time: 0 hr 10 min 51 sec) 
Heartbeat CPU 0 instructions: 160000004 cycles: 64501676 heartbeat IPC: 2.416 cumulative IPC: 2.47465 (Simulation time: 0 hr 11 min 36 sec) 
Heartbeat CPU 0 instructions: 170000002 cycles: 68661813 heartbeat IPC: 2.40377 cumulative IPC: 2.47034 (Simulation time: 0 hr 12 min 22 sec) 
Heartbeat CPU 0 instructions: 180000003 cycles: 72813463 heartbeat IPC: 2.40868 cumulative IPC: 2.46681 (Simulation time: 0 hr 13 min 7 sec) 
Heartbeat CPU 0 instructions: 190000003 cycles: 76962824 heartbeat IPC: 2.41001 cumulative IPC: 2.46374 (Simulation time: 0 hr 13 min 51 sec) 
Heartbeat CPU 0 instructions: 200000003 cycles: 81099085 heartbeat IPC: 2.41764 cumulative IPC: 2.46138 (Simulation time: 0 hr 14 min 37 sec) 
Heartbeat CPU 0 instructions: 210000000 cycles: 85270240 heartbeat IPC: 2.39742 cumulative IPC: 2.45824 (Simulation time: 0 hr 15 min 21 sec) 
Heartbeat CPU 0 instructions: 220000000 cycles: 89444677 heartbeat IPC: 2.39553 cumulative IPC: 2.45531 (Simulation time: 0 hr 16 min 5 sec) 
Heartbeat CPU 0 instructions: 230000004 cycles: 93608850 heartbeat IPC: 2.40144 cumulative IPC: 2.4529 (Simulation time: 0 hr 16 min 49 sec) 
Heartbeat CPU 0 instructions: 240000004 cycles: 97776222 heartbeat IPC: 2.39959 cumulative IPC: 2.45062 (Simulation time: 0 hr 17 min 33 sec) 
Heartbeat CPU 0 instructions: 250000000 cycles: 101950646 heartbeat IPC: 2.39554 cumulative IPC: 2.44836 (Simulation time: 0 hr 18 min 19 sec) 
Heartbeat CPU 0 instructions: 260000002 cycles: 106098711 heartbeat IPC: 2.41076 cumulative IPC: 2.44689 (Simulation time: 0 hr 19 min 4 sec) 
Heartbeat CPU 0 instructions: 270000004 cycles: 110234201 heartbeat IPC: 2.41809 cumulative IPC: 2.44581 (Simulation time: 0 hr 19 min 49 sec) 
Heartbeat CPU 0 instructions: 280000001 cycles: 114368198 heartbeat IPC: 2.41897 cumulative IPC: 2.44483 (Simulation time: 0 hr 20 min 33 sec) 
Heartbeat CPU 0 instructions: 290000000 cycles: 118530184 heartbeat IPC: 2.4027 cumulative IPC: 2.44335 (Simulation time: 0 hr 21 min 18 sec) 
Heartbeat CPU 0 instructions: 300000002 cycles: 122717758 heartbeat IPC: 2.38802 cumulative IPC: 2.44146 (Simulation time: 0 hr 22 min 3 sec) 
Heartbeat CPU 0 instructions: 310000000 cycles: 126887844 heartbeat IPC: 2.39803 cumulative IPC: 2.44003 (Simulation time: 0 hr 22 min 48 sec) 
Heartbeat CPU 0 instructions: 320000003 cycles: 131029038 heartbeat IPC: 2.41476 cumulative IPC: 2.43923 (Simulation time: 0 hr 23 min 34 sec) 
Heartbeat CPU 0 instructions: 330000002 cycles: 135150371 heartbeat IPC: 2.4264 cumulative IPC: 2.43884 (Simulation time: 0 hr 24 min 20 sec) 
Heartbeat CPU 0 instructions: 340000002 cycles: 139256133 heartbeat IPC: 2.4356 cumulative IPC: 2.43874 (Simulation time: 0 hr 25 min 6 sec) 
Heartbeat CPU 0 instructions: 350000003 cycles: 143361971 heartbeat IPC: 2.43556 cumulative IPC: 2.43865 (Simulation time: 0 hr 25 min 49 sec) 
Heartbeat CPU 0 instructions: 360000000 cycles: 147465809 heartbeat IPC: 2.43674 cumulative IPC: 2.4386 (Simulation time: 0 hr 26 min 33 sec) 
Heartbeat CPU 0 instructions: 370000003 cycles: 151559440 heartbeat IPC: 2.44282 cumulative IPC: 2.43871 (Simulation time: 0 hr 27 min 17 sec) 
Heartbeat CPU 0 instructions: 380000004 cycles: 155648667 heartbeat IPC: 2.44545 cumulative IPC: 2.43889 (Simulation time: 0 hr 28 min 2 sec) 
Heartbeat CPU 0 instructions: 390000003 cycles: 159717395 heartbeat IPC: 2.45777 cumulative IPC: 2.43937 (Simulation time: 0 hr 28 min 47 sec) 
Heartbeat CPU 0 instructions: 400000002 cycles: 163776890 heartbeat IPC: 2.46336 cumulative IPC: 2.43997 (Simulation time: 0 hr 29 min 31 sec) 
Heartbeat CPU 0 instructions: 410000000 cycles: 167845630 heartbeat IPC: 2.45776 cumulative IPC: 2.4404 (Simulation time: 0 hr 30 min 15 sec) 
Heartbeat CPU 0 instructions: 420000003 cycles: 171921723 heartbeat IPC: 2.45333 cumulative IPC: 2.44071 (Simulation time: 0 hr 31 min 0 sec) 
Heartbeat CPU 0 instructions: 430000003 cycles: 176002834 heartbeat IPC: 2.45031 cumulative IPC: 2.44093 (Simulation time: 0 hr 31 min 45 sec) 
Heartbeat CPU 0 instructions: 440000003 cycles: 180065476 heartbeat IPC: 2.46145 cumulative IPC: 2.44139 (Simulation time: 0 hr 32 min 30 sec) 
Heartbeat CPU 0 instructions: 450000004 cycles: 184116924 heartbeat IPC: 2.46825 cumulative IPC: 2.44198 (Simulation time: 0 hr 33 min 13 sec) 
Heartbeat CPU 0 instructions: 460000001 cycles: 188199731 heartbeat IPC: 2.44929 cumulative IPC: 2.44214 (Simulation time: 0 hr 33 min 59 sec) 
Heartbeat CPU 0 instructions: 470000001 cycles: 192265403 heartbeat IPC: 2.45962 cumulative IPC: 2.44251 (Simulation time: 0 hr 34 min 43 sec) 
Heartbeat CPU 0 instructions: 480000001 cycles: 196299628 heartbeat IPC: 2.47879 cumulative IPC: 2.44326 (Simulation time: 0 hr 35 min 27 sec) 
Heartbeat CPU 0 instructions: 490000004 cycles: 200316511 heartbeat IPC: 2.48949 cumulative IPC: 2.44419 (Simulation time: 0 hr 36 min 10 sec) 
Heartbeat CPU 0 instructions: 500000000 cycles: 204339890 heartbeat IPC: 2.48547 cumulative IPC: 2.445 (Simulation time: 0 hr 36 min 55 sec) 
Heartbeat CPU 0 instructions: 510000002 cycles: 208400172 heartbeat IPC: 2.46288 cumulative IPC: 2.44535 (Simulation time: 0 hr 37 min 39 sec) 
Heartbeat CPU 0 instructions: 520000000 cycles: 212486326 heartbeat IPC: 2.44729 cumulative IPC: 2.44539 (Simulation time: 0 hr 38 min 24 sec) 
Heartbeat CPU 0 instructions: 530000001 cycles: 216568772 heartbeat IPC: 2.44951 cumulative IPC: 2.44547 (Simulation time: 0 hr 39 min 8 sec) 
Heartbeat CPU 0 instructions: 540000003 cycles: 220671798 heartbeat IPC: 2.43723 cumulative IPC: 2.44531 (Simulation time: 0 hr 39 min 53 sec) 
Heartbeat CPU 0 instructions: 550000002 cycles: 224777419 heartbeat IPC: 2.43568 cumulative IPC: 2.44514 (Simulation time: 0 hr 40 min 38 sec) 
Heartbeat CPU 0 instructions: 560000002 cycles: 228879955 heartbeat IPC: 2.43752 cumulative IPC: 2.445 (Simulation time: 0 hr 41 min 24 sec) 
Heartbeat CPU 0 instructions: 570000004 cycles: 232985960 heartbeat IPC: 2.43546 cumulative IPC: 2.44483 (Simulation time: 0 hr 42 min 8 sec) 
Heartbeat CPU 0 instructions: 580000001 cycles: 237088171 heartbeat IPC: 2.43771 cumulative IPC: 2.44471 (Simulation time: 0 hr 42 min 53 sec) 
Heartbeat CPU 0 instructions: 590000001 cycles: 241204952 heartbeat IPC: 2.42908 cumulative IPC: 2.44444 (Simulation time: 0 hr 43 min 38 sec) 
Heartbeat CPU 0 instructions: 600000002 cycles: 245311095 heartbeat IPC: 2.43538 cumulative IPC: 2.44429 (Simulation time: 0 hr 44 min 22 sec) 
Heartbeat CPU 0 instructions: 610000001 cycles: 249399474 heartbeat IPC: 2.44596 cumulative IPC: 2.44432 (Simulation time: 0 hr 45 min 4 sec) 
Heartbeat CPU 0 instructions: 620000001 cycles: 253454853 heartbeat IPC: 2.46586 cumulative IPC: 2.44466 (Simulation time: 0 hr 45 min 48 sec) 
Heartbeat CPU 0 instructions: 630000001 cycles: 257481415 heartbeat IPC: 2.48351 cumulative IPC: 2.44527 (Simulation time: 0 hr 46 min 34 sec) 
Heartbeat CPU 0 instructions: 640000000 cycles: 261506558 heartbeat IPC: 2.48438 cumulative IPC: 2.44587 (Simulation time: 0 hr 47 min 18 sec) 
Heartbeat CPU 0 instructions: 650000000 cycles: 265532915 heartbeat IPC: 2.48363 cumulative IPC: 2.44645 (Simulation time: 0 hr 48 min 2 sec) 
Heartbeat CPU 0 instructions: 660000003 cycles: 269539404 heartbeat IPC: 2.49595 cumulative IPC: 2.44718 (Simulation time: 0 hr 48 min 47 sec) 
Heartbeat CPU 0 instructions: 670000003 cycles: 273572276 heartbeat IPC: 2.47962 cumulative IPC: 2.44766 (Simulation time: 0 hr 49 min 31 sec) 
Heartbeat CPU 0 instructions: 680000001 cycles: 277590934 heartbeat IPC: 2.48839 cumulative IPC: 2.44825 (Simulation time: 0 hr 50 min 14 sec) 
Heartbeat CPU 0 instructions: 690000000 cycles: 281667311 heartbeat IPC: 2.45316 cumulative IPC: 2.44832 (Simulation time: 0 hr 50 min 59 sec) 
Heartbeat CPU 0 instructions: 700000004 cycles: 285744915 heartbeat IPC: 2.45242 cumulative IPC: 2.44838 (Simulation time: 0 hr 51 min 44 sec) 
Heartbeat CPU 0 instructions: 710000000 cycles: 289803830 heartbeat IPC: 2.46371 cumulative IPC: 2.4486 (Simulation time: 0 hr 52 min 29 sec) 
Heartbeat CPU 0 instructions: 720000001 cycles: 293859964 heartbeat IPC: 2.4654 cumulative IPC: 2.44883 (Simulation time: 0 hr 53 min 12 sec) 
Heartbeat CPU 0 instructions: 730000001 cycles: 297903861 heartbeat IPC: 2.47286 cumulative IPC: 2.44915 (Simulation time: 0 hr 53 min 57 sec) 
Heartbeat CPU 0 instructions: 740000000 cycles: 301938054 heartbeat IPC: 2.47881 cumulative IPC: 2.44955 (Simulation time: 0 hr 54 min 42 sec) 
Heartbeat CPU 0 instructions: 750000004 cycles: 305978361 heartbeat IPC: 2.47506 cumulative IPC: 2.44989 (Simulation time: 0 hr 55 min 26 sec) 
Heartbeat CPU 0 instructions: 760000003 cycles: 310031848 heartbeat IPC: 2.46701 cumulative IPC: 2.45011 (Simulation time: 0 hr 56 min 10 sec) 
Heartbeat CPU 0 instructions: 770000003 cycles: 314049335 heartbeat IPC: 2.48912 cumulative IPC: 2.45061 (Simulation time: 0 hr 56 min 53 sec) 
Heartbeat CPU 0 instructions: 780000002 cycles: 318070355 heartbeat IPC: 2.48693 cumulative IPC: 2.45107 (Simulation time: 0 hr 57 min 38 sec) 
Heartbeat CPU 0 instructions: 790000003 cycles: 322113068 heartbeat IPC: 2.47359 cumulative IPC: 2.45135 (Simulation time: 0 hr 58 min 23 sec) 
Heartbeat CPU 0 instructions: 800000001 cycles: 326160423 heartbeat IPC: 2.47075 cumulative IPC: 2.45159 (Simulation time: 0 hr 59 min 10 sec) 
Heartbeat CPU 0 instructions: 810000000 cycles: 330213310 heartbeat IPC: 2.46738 cumulative IPC: 2.45179 (Simulation time: 0 hr 59 min 56 sec) 
Heartbeat CPU 0 instructions: 820000000 cycles: 334255510 heartbeat IPC: 2.4739 cumulative IPC: 2.45206 (Simulation time: 1 hr 0 min 42 sec) 
Heartbeat CPU 0 instructions: 830000000 cycles: 338307221 heartbeat IPC: 2.46809 cumulative IPC: 2.45225 (Simulation time: 1 hr 1 min 27 sec) 
Heartbeat CPU 0 instructions: 840000000 cycles: 342376168 heartbeat IPC: 2.45764 cumulative IPC: 2.45231 (Simulation time: 1 hr 2 min 13 sec) 
Heartbeat CPU 0 instructions: 850000004 cycles: 346442014 heartbeat IPC: 2.45951 cumulative IPC: 2.4524 (Simulation time: 1 hr 2 min 59 sec) 
Heartbeat CPU 0 instructions: 860000000 cycles: 350507351 heartbeat IPC: 2.45982 cumulative IPC: 2.45248 (Simulation time: 1 hr 3 min 44 sec) 
Heartbeat CPU 0 instructions: 870000003 cycles: 354554993 heartbeat IPC: 2.47057 cumulative IPC: 2.45269 (Simulation time: 1 hr 4 min 30 sec) 
Heartbeat CPU 0 instructions: 880000003 cycles: 358626556 heartbeat IPC: 2.45606 cumulative IPC: 2.45273 (Simulation time: 1 hr 5 min 16 sec) 
Heartbeat CPU 0 instructions: 890000002 cycles: 362696772 heartbeat IPC: 2.45687 cumulative IPC: 2.45277 (Simulation time: 1 hr 6 min 1 sec) 
Heartbeat CPU 0 instructions: 900000001 cycles: 366776041 heartbeat IPC: 2.45142 cumulative IPC: 2.45276 (Simulation time: 1 hr 6 min 46 sec) 
Heartbeat CPU 0 instructions: 910000002 cycles: 370846761 heartbeat IPC: 2.45657 cumulative IPC: 2.4528 (Simulation time: 1 hr 7 min 30 sec) 
Heartbeat CPU 0 instructions: 920000004 cycles: 374915328 heartbeat IPC: 2.45787 cumulative IPC: 2.45286 (Simulation time: 1 hr 8 min 15 sec) 
Heartbeat CPU 0 instructions: 930000000 cycles: 378986744 heartbeat IPC: 2.45615 cumulative IPC: 2.45289 (Simulation time: 1 hr 8 min 59 sec) 
Heartbeat CPU 0 instructions: 940000003 cycles: 383061793 heartbeat IPC: 2.45396 cumulative IPC: 2.4529 (Simulation time: 1 hr 9 min 44 sec) 
Heartbeat CPU 0 instructions: 950000004 cycles: 387127726 heartbeat IPC: 2.45946 cumulative IPC: 2.45297 (Simulation time: 1 hr 10 min 28 sec) 
Heartbeat CPU 0 instructions: 960000001 cycles: 391176955 heartbeat IPC: 2.46961 cumulative IPC: 2.45314 (Simulation time: 1 hr 11 min 12 sec) 
Heartbeat CPU 0 instructions: 970000000 cycles: 395234124 heartbeat IPC: 2.46477 cumulative IPC: 2.45326 (Simulation time: 1 hr 11 min 54 sec) 
Heartbeat CPU 0 instructions: 980000004 cycles: 399309027 heartbeat IPC: 2.45405 cumulative IPC: 2.45327 (Simulation time: 1 hr 12 min 35 sec) 
Heartbeat CPU 0 instructions: 990000002 cycles: 403402485 heartbeat IPC: 2.44292 cumulative IPC: 2.45317 (Simulation time: 1 hr 13 min 17 sec) 
Heartbeat CPU 0 instructions: 1000000001 cycles: 407485140 heartbeat IPC: 2.44939 cumulative IPC: 2.45313 (Simulation time: 1 hr 13 min 59 sec) 
Finished CPU 0 instructions: 1000000000 cycles: 407644625 cumulative IPC: 2.45312 (Simulation time: 1 hr 14 min 4 sec) 

ChampSim completed all CPUs

Region of Interest Statistics

CPU 0 cumulative IPC: 2.45312 instructions: 1000000000 cycles: 407644625
cpu0_DTLB TOTAL     ACCESS:   82617255  HIT:   82153139  MISS:     464116
cpu0_DTLB LOAD      ACCESS:   82594329  HIT:   82135788  MISS:     458541
cpu0_DTLB RFO       ACCESS:      22926  HIT:      17351  MISS:       5575
cpu0_DTLB PREFETCH  ACCESS:          0  HIT:          0  MISS:          0
cpu0_DTLB WRITEBACK ACCESS:          0  HIT:          0  MISS:          0
cpu0_DTLB TRANSLATION ACCESS:          0  HIT:          0  MISS:          0
cpu0_DTLB PREFETCH  REQUESTED:          0  ISSUED:          0  USEFUL:          0  USELESS:          0
cpu0_DTLB AVERAGE MISS LATENCY: 9.31116 cycles
cpu0_ITLB TOTAL     ACCESS:    9107256  HIT:    9107256  MISS:          0
cpu0_ITLB LOAD      ACCESS:    9107256  HIT:    9107256  MISS:          0
cpu0_ITLB RFO       ACCESS:          0  HIT:          0  MISS:          0
cpu0_ITLB PREFETCH  ACCESS:          0  HIT:          0  MISS:          0
cpu0_ITLB WRITEBACK ACCESS:          0  HIT:          0  MISS:          0
cpu0_ITLB TRANSLATION ACCESS:          0  HIT:          0  MISS:          0
cpu0_ITLB PREFETCH  REQUESTED:          0  ISSUED:          0  USEFUL:          0  USELESS:          0
cpu0_ITLB AVERAGE MISS LATENCY: -nan cycles
cpu0_L1I TOTAL     ACCESS:          2  HIT:          2  MISS:          0
cpu0_L1I LOAD      ACCESS:          2  HIT:          2  MISS:          0
cpu0_L1I RFO       ACCESS:          0  HIT:          0  MISS:          0
cpu0_L1I PREFETCH  ACCESS:          0  HIT:          0  MISS:          0
cpu0_L1I WRITEBACK ACCESS:          0  HIT:          0  MISS:          0
cpu0_L1I TRANSLATION ACCESS:          0  HIT:          0  MISS:          0
cpu0_L1I PREFETCH  REQUESTED:          0  ISSUED:          0  USEFUL:          0  USELESS:          0
cpu0_L1I AVERAGE MISS LATENCY: -nan cycles
cpu0_STLB TOTAL     ACCESS:     464116  HIT:     463505  MISS:        611
cpu0_STLB LOAD      ACCESS:     458541  HIT:     457936  MISS:        605
cpu0_STLB RFO       ACCESS:       5575  HIT:       5569  MISS:          6
cpu0_STLB PREFETCH  ACCESS:          0  HIT:          0  MISS:          0
cpu0_STLB WRITEBACK ACCESS:          0  HIT:          0  MISS:          0
cpu0_STLB TRANSLATION ACCESS:          0  HIT:          0  MISS:          0
cpu0_STLB PREFETCH  REQUESTED:          0  ISSUED:          0  USEFUL:          0  USELESS:          0
cpu0_STLB AVERAGE MISS LATENCY: 226.54 cycles
cpu0_L1D TOTAL     ACCESS:  103457742  HIT:   94095845  MISS:    9361897
cpu0_L1D LOAD      ACCESS:   53557771  HIT:   48739989  MISS:    4817782
cpu0_L1D RFO       ACCESS:      41628  HIT:      35711  MISS:       5917
cpu0_L1D PREFETCH  ACCESS:   49857732  HIT:   45320145  MISS:    4537587
cpu0_L1D WRITEBACK ACCESS:          0  HIT:          0  MISS:          0
cpu0_L1D TRANSLATION ACCESS:        611  HIT:          0  MISS:        611
cpu0_L1D PREFETCH  REQUESTED:   58851087  ISSUED:   58807592  USEFUL:    4521880  USELESS:     134214
cpu0_L1D AVERAGE MISS LATENCY: 26.6629 cycles
cpu0_L2C TOTAL     ACCESS:   31705652  HIT:   26736040  MISS:    4969612
cpu0_L2C LOAD      ACCESS:    4699285  HIT:    2422923  MISS:    2276362
cpu0_L2C RFO       ACCESS:       5904  HIT:       2926  MISS:       2978
cpu0_L2C PREFETCH  ACCESS:   26988357  HIT:   24298233  MISS:    2690124
cpu0_L2C WRITEBACK ACCESS:      11495  HIT:      11495  MISS:          0
cpu0_L2C TRANSLATION ACCESS:        611  HIT:        463  MISS:        148
cpu0_L2C PREFETCH  REQUESTED:   22332263  ISSUED:   22332263  USEFUL:     518644  USELESS:      40254
cpu0_L2C AVERAGE MISS LATENCY: 29.5743 cycles
LLC TOTAL     ACCESS:    4977318  HIT:    4935275  MISS:      42043
LLC LOAD      ACCESS:    2276361  HIT:    2275737  MISS:        624
LLC RFO       ACCESS:       2974  HIT:       2702  MISS:        272
LLC PREFETCH  ACCESS:    2690124  HIT:    2648977  MISS:      41147
LLC WRITEBACK ACCESS:       7711  HIT:       7711  MISS:          0
LLC TRANSLATION ACCESS:        148  HIT:        148  MISS:          0
LLC PREFETCH  REQUESTED:          0  ISSUED:          0  USEFUL:          0  USELESS:          0
LLC AVERAGE MISS LATENCY: 304.276 cycles

DRAM Statistics
 CHANNEL 0
 RQ ROW_BUFFER_HIT:          0  ROW_BUFFER_MISS:      42043
 DBUS AVG_CONGESTED_CYCLE:    3.78475
 WQ ROW_BUFFER_HIT:          0  ROW_BUFFER_MISS:         75  FULL:          0


CPU 0 Branch Prediction Accuracy: 99.3959% MPKI: 0.625206 Average ROB Occupancy at Mispredict: 76.0409
Branch type MPKI
BRANCH_DIRECT_JUMP: 3e-06
BRANCH_INDIRECT: 0
BRANCH_CONDITIONAL: 0.625203
BRANCH_DIRECT_CALL: 0
BRANCH_INDIRECT_CALL: 0
BRANCH_RETURN: 0

