
*** ChampSim Multicore Out-of-Order Simulator ***

Warmup Instructions: 1000000
Simulation Instructions: 1000000000
Number of CPUs: 1
Off-chip DRAM Size: 4 GiB Channels: 1 Width: 64-bit Data Rate: 3200 MT/s

VirtualMemory physical capacity: 8588881920 num_ppages: 2096895
VirtualMemory page size: 4096 log2_page_size: 12

CPU 0 runs tracer/pin/traces/spec2k6/433.milc-127B.champsimtrace.xz
Basic BTB sets: 1024 ways: 8 indirect buffer size: 4096 RAS size: 64
cpu0_L1D next line prefetcher
cpu0_L2C IP-based stride prefetcher
WARNING: The extended signature CACHE::prefetch_line(ip, base_addr, pf_addr, fill_this_level, prefetch_metadata) is deprecated.
WARNING: Use CACHE::prefetch_line(pf_addr, fill_this_level, prefetch_metadata) instead.

Warmup complete CPU 0 instructions: 1000004 cycles: 265826 (Simulation time: 0 hr 0 min 2 sec) 

Heartbeat CPU 0 instructions: 10000003 cycles: 35540599 heartbeat IPC: 0.281368 cumulative IPC: 0.25514 (Simulation time: 0 hr 2 min 19 sec) 
Heartbeat CPU 0 instructions: 20000004 cycles: 73987133 heartbeat IPC: 0.260101 cumulative IPC: 0.257727 (Simulation time: 0 hr 4 min 30 sec) 
Heartbeat CPU 0 instructions: 30000002 cycles: 118412551 heartbeat IPC: 0.225096 cumulative IPC: 0.245457 (Simulation time: 0 hr 7 min 9 sec) 
Heartbeat CPU 0 instructions: 40000001 cycles: 140598795 heartbeat IPC: 0.45073 cumulative IPC: 0.27791 (Simulation time: 0 hr 8 min 21 sec) 
Heartbeat CPU 0 instructions: 50000000 cycles: 163409999 heartbeat IPC: 0.438381 cumulative IPC: 0.300348 (Simulation time: 0 hr 9 min 32 sec) 
Heartbeat CPU 0 instructions: 60000004 cycles: 186190080 heartbeat IPC: 0.43898 cumulative IPC: 0.317334 (Simulation time: 0 hr 11 min 2 sec) 
Heartbeat CPU 0 instructions: 70000004 cycles: 208782010 heartbeat IPC: 0.442636 cumulative IPC: 0.33091 (Simulation time: 0 hr 12 min 29 sec) 
Heartbeat CPU 0 instructions: 80000002 cycles: 231354045 heartbeat IPC: 0.443026 cumulative IPC: 0.341861 (Simulation time: 0 hr 13 min 47 sec) 
Heartbeat CPU 0 instructions: 90000004 cycles: 253893773 heartbeat IPC: 0.443661 cumulative IPC: 0.350908 (Simulation time: 0 hr 15 min 11 sec) 
Heartbeat CPU 0 instructions: 100000003 cycles: 305871734 heartbeat IPC: 0.192389 cumulative IPC: 0.323947 (Simulation time: 0 hr 17 min 25 sec) 
Heartbeat CPU 0 instructions: 110000003 cycles: 345980758 heartbeat IPC: 0.24932 cumulative IPC: 0.315289 (Simulation time: 0 hr 20 min 13 sec) 
Heartbeat CPU 0 instructions: 120000000 cycles: 383804375 heartbeat IPC: 0.264385 cumulative IPC: 0.310269 (Simulation time: 0 hr 23 min 1 sec) 
Heartbeat CPU 0 instructions: 130000004 cycles: 420662879 heartbeat IPC: 0.271308 cumulative IPC: 0.306853 (Simulation time: 0 hr 26 min 18 sec) 
Heartbeat CPU 0 instructions: 140000001 cycles: 462852203 heartbeat IPC: 0.237027 cumulative IPC: 0.300484 (Simulation time: 0 hr 29 min 24 sec) 
Heartbeat CPU 0 instructions: 150000004 cycles: 504799175 heartbeat IPC: 0.238396 cumulative IPC: 0.295322 (Simulation time: 0 hr 32 min 6 sec) 
Heartbeat CPU 0 instructions: 160000000 cycles: 529265680 heartbeat IPC: 0.408722 cumulative IPC: 0.300567 (Simulation time: 0 hr 33 min 46 sec) 
Heartbeat CPU 0 instructions: 170000004 cycles: 549078765 heartbeat IPC: 0.504717 cumulative IPC: 0.307937 (Simulation time: 0 hr 35 min 9 sec) 
Heartbeat CPU 0 instructions: 180000001 cycles: 568855542 heartbeat IPC: 0.505643 cumulative IPC: 0.314814 (Simulation time: 0 hr 36 min 31 sec) 
Heartbeat CPU 0 instructions: 190000004 cycles: 588434533 heartbeat IPC: 0.510752 cumulative IPC: 0.321336 (Simulation time: 0 hr 37 min 56 sec) 
Heartbeat CPU 0 instructions: 200000000 cycles: 607751526 heartbeat IPC: 0.517679 cumulative IPC: 0.32758 (Simulation time: 0 hr 39 min 25 sec) 
Heartbeat CPU 0 instructions: 210000002 cycles: 627074891 heartbeat IPC: 0.517508 cumulative IPC: 0.333435 (Simulation time: 0 hr 40 min 57 sec) 
Heartbeat CPU 0 instructions: 220000000 cycles: 646409875 heartbeat IPC: 0.517197 cumulative IPC: 0.338934 (Simulation time: 0 hr 42 min 31 sec) 
Heartbeat CPU 0 instructions: 230000000 cycles: 695488411 heartbeat IPC: 0.203755 cumulative IPC: 0.329391 (Simulation time: 0 hr 47 min 34 sec) 
Heartbeat CPU 0 instructions: 240000001 cycles: 742024751 heartbeat IPC: 0.214886 cumulative IPC: 0.322207 (Simulation time: 0 hr 51 min 37 sec) 
Heartbeat CPU 0 instructions: 250000003 cycles: 795692107 heartbeat IPC: 0.186333 cumulative IPC: 0.31304 (Simulation time: 0 hr 56 min 49 sec) 
Heartbeat CPU 0 instructions: 260000003 cycles: 836127188 heartbeat IPC: 0.24731 cumulative IPC: 0.30986 (Simulation time: 1 hr 0 min 18 sec) 
Heartbeat CPU 0 instructions: 270000002 cycles: 874334880 heartbeat IPC: 0.261727 cumulative IPC: 0.307756 (Simulation time: 1 hr 2 min 55 sec) 
Heartbeat CPU 0 instructions: 280000000 cycles: 906269712 heartbeat IPC: 0.313138 cumulative IPC: 0.307946 (Simulation time: 1 hr 5 min 6 sec) 
Heartbeat CPU 0 instructions: 290000000 cycles: 928077817 heartbeat IPC: 0.458545 cumulative IPC: 0.311486 (Simulation time: 1 hr 6 min 34 sec) 
Heartbeat CPU 0 instructions: 300000001 cycles: 949380407 heartbeat IPC: 0.469427 cumulative IPC: 0.31503 (Simulation time: 1 hr 8 min 0 sec) 
Heartbeat CPU 0 instructions: 310000004 cycles: 970661212 heartbeat IPC: 0.469907 cumulative IPC: 0.318427 (Simulation time: 1 hr 9 min 26 sec) 
Heartbeat CPU 0 instructions: 320000003 cycles: 991935790 heartbeat IPC: 0.470045 cumulative IPC: 0.32168 (Simulation time: 1 hr 10 min 53 sec) 
Heartbeat CPU 0 instructions: 330000004 cycles: 1013188625 heartbeat IPC: 0.470526 cumulative IPC: 0.324803 (Simulation time: 1 hr 12 min 18 sec) 
Heartbeat CPU 0 instructions: 340000004 cycles: 1034439580 heartbeat IPC: 0.470567 cumulative IPC: 0.327798 (Simulation time: 1 hr 13 min 42 sec) 
Heartbeat CPU 0 instructions: 350000001 cycles: 1058685563 heartbeat IPC: 0.412439 cumulative IPC: 0.329737 (Simulation time: 1 hr 15 min 33 sec) 
Heartbeat CPU 0 instructions: 360000000 cycles: 1092685704 heartbeat IPC: 0.294116 cumulative IPC: 0.328628 (Simulation time: 1 hr 18 min 4 sec) 
Heartbeat CPU 0 instructions: 370000001 cycles: 1126717704 heartbeat IPC: 0.293841 cumulative IPC: 0.327577 (Simulation time: 1 hr 20 min 25 sec) 
Heartbeat CPU 0 instructions: 380000001 cycles: 1151521488 heartbeat IPC: 0.403164 cumulative IPC: 0.329206 (Simulation time: 1 hr 21 min 53 sec) 
Heartbeat CPU 0 instructions: 390000001 cycles: 1174518687 heartbeat IPC: 0.434836 cumulative IPC: 0.331274 (Simulation time: 1 hr 23 min 10 sec) 
Heartbeat CPU 0 instructions: 400000001 cycles: 1197380994 heartbeat IPC: 0.437401 cumulative IPC: 0.333301 (Simulation time: 1 hr 24 min 25 sec) 
Heartbeat CPU 0 instructions: 410000003 cycles: 1220167435 heartbeat IPC: 0.438858 cumulative IPC: 0.335273 (Simulation time: 1 hr 25 min 45 sec) 
Heartbeat CPU 0 instructions: 420000003 cycles: 1242808232 heartbeat IPC: 0.441681 cumulative IPC: 0.337212 (Simulation time: 1 hr 27 min 1 sec) 
Heartbeat CPU 0 instructions: 430000003 cycles: 1265419115 heartbeat IPC: 0.442265 cumulative IPC: 0.339089 (Simulation time: 1 hr 28 min 17 sec) 
Heartbeat CPU 0 instructions: 440000001 cycles: 1288044537 heartbeat IPC: 0.441981 cumulative IPC: 0.340897 (Simulation time: 1 hr 29 min 34 sec) 
Heartbeat CPU 0 instructions: 450000000 cycles: 1346799852 heartbeat IPC: 0.170197 cumulative IPC: 0.333449 (Simulation time: 1 hr 31 min 54 sec) 
Heartbeat CPU 0 instructions: 460000000 cycles: 1381833277 heartbeat IPC: 0.285442 cumulative IPC: 0.332231 (Simulation time: 1 hr 33 min 54 sec) 
Heartbeat CPU 0 instructions: 470000002 cycles: 1416057916 heartbeat IPC: 0.292187 cumulative IPC: 0.331263 (Simulation time: 1 hr 35 min 47 sec) 
Heartbeat CPU 0 instructions: 480000004 cycles: 1451061746 heartbeat IPC: 0.285683 cumulative IPC: 0.330164 (Simulation time: 1 hr 37 min 39 sec) 
Heartbeat CPU 0 instructions: 490000002 cycles: 1489205015 heartbeat IPC: 0.262169 cumulative IPC: 0.328422 (Simulation time: 1 hr 39 min 29 sec) 
Heartbeat CPU 0 instructions: 500000000 cycles: 1526215102 heartbeat IPC: 0.270197 cumulative IPC: 0.32701 (Simulation time: 1 hr 41 min 13 sec) 
Heartbeat CPU 0 instructions: 510000000 cycles: 1548329816 heartbeat IPC: 0.452188 cumulative IPC: 0.328798 (Simulation time: 1 hr 42 min 18 sec) 
Heartbeat CPU 0 instructions: 520000003 cycles: 1569662115 heartbeat IPC: 0.468773 cumulative IPC: 0.3307 (Simulation time: 1 hr 43 min 21 sec) 
Heartbeat CPU 0 instructions: 530000000 cycles: 1590943697 heartbeat IPC: 0.46989 cumulative IPC: 0.332563 (Simulation time: 1 hr 44 min 24 sec) 
Heartbeat CPU 0 instructions: 540000001 cycles: 1612222434 heartbeat IPC: 0.469953 cumulative IPC: 0.334376 (Simulation time: 1 hr 45 min 27 sec) 
Heartbeat CPU 0 instructions: 550000003 cycles: 1633470825 heartbeat IPC: 0.470624 cumulative IPC: 0.336149 (Simulation time: 1 hr 46 min 31 sec) 
Heartbeat CPU 0 instructions: 560000000 cycles: 1654739099 heartbeat IPC: 0.470184 cumulative IPC: 0.337872 (Simulation time: 1 hr 47 min 35 sec) 
Heartbeat CPU 0 instructions: 570000000 cycles: 1681003833 heartbeat IPC: 0.380739 cumulative IPC: 0.338542 (Simulation time: 1 hr 49 min 8 sec) 
Heartbeat CPU 0 instructions: 580000004 cycles: 1731278522 heartbeat IPC: 0.198907 cumulative IPC: 0.334486 (Simulation time: 1 hr 51 min 46 sec) 
Heartbeat CPU 0 instructions: 590000000 cycles: 1776824096 heartbeat IPC: 0.21956 cumulative IPC: 0.33154 (Simulation time: 1 hr 54 min 6 sec) 
Heartbeat CPU 0 instructions: 600000000 cycles: 1829164019 heartbeat IPC: 0.191059 cumulative IPC: 0.32752 (Simulation time: 1 hr 57 min 4 sec) 
Heartbeat CPU 0 instructions: 610000003 cycles: 1854061644 heartbeat IPC: 0.401645 cumulative IPC: 0.328515 (Simulation time: 1 hr 58 min 13 sec) 
Heartbeat CPU 0 instructions: 620000000 cycles: 1877962580 heartbeat IPC: 0.418394 cumulative IPC: 0.329659 (Simulation time: 1 hr 59 min 20 sec) 
Heartbeat CPU 0 instructions: 630000004 cycles: 1901844402 heartbeat IPC: 0.418729 cumulative IPC: 0.330778 (Simulation time: 2 hr 0 min 27 sec) 
Heartbeat CPU 0 instructions: 640000001 cycles: 1925732262 heartbeat IPC: 0.418623 cumulative IPC: 0.331868 (Simulation time: 2 hr 1 min 35 sec) 
Heartbeat CPU 0 instructions: 650000001 cycles: 1949653228 heartbeat IPC: 0.418043 cumulative IPC: 0.332925 (Simulation time: 2 hr 2 min 43 sec) 
Heartbeat CPU 0 instructions: 660000001 cycles: 1973581199 heartbeat IPC: 0.417921 cumulative IPC: 0.333956 (Simulation time: 2 hr 3 min 51 sec) 
Heartbeat CPU 0 instructions: 670000000 cycles: 2007256714 heartbeat IPC: 0.296952 cumulative IPC: 0.333335 (Simulation time: 2 hr 5 min 12 sec) 
Heartbeat CPU 0 instructions: 680000002 cycles: 2072032052 heartbeat IPC: 0.15438 cumulative IPC: 0.32774 (Simulation time: 2 hr 8 min 5 sec) 
Heartbeat CPU 0 instructions: 690000002 cycles: 2110662683 heartbeat IPC: 0.258862 cumulative IPC: 0.326479 (Simulation time: 2 hr 10 min 5 sec) 
Heartbeat CPU 0 instructions: 700000000 cycles: 2148189904 heartbeat IPC: 0.266473 cumulative IPC: 0.32543 (Simulation time: 2 hr 12 min 3 sec) 
Heartbeat CPU 0 instructions: 710000004 cycles: 2201780150 heartbeat IPC: 0.186601 cumulative IPC: 0.322051 (Simulation time: 2 hr 15 min 5 sec) 
Heartbeat CPU 0 instructions: 720000002 cycles: 2222093368 heartbeat IPC: 0.49229 cumulative IPC: 0.323607 (Simulation time: 2 hr 16 min 5 sec) 
Heartbeat CPU 0 instructions: 730000000 cycles: 2242037768 heartbeat IPC: 0.501394 cumulative IPC: 0.325189 (Simulation time: 2 hr 17 min 5 sec) 
Heartbeat CPU 0 instructions: 740000003 cycles: 2261976087 heartbeat IPC: 0.501547 cumulative IPC: 0.326744 (Simulation time: 2 hr 18 min 5 sec) 
Heartbeat CPU 0 instructions: 750000000 cycles: 2281660265 heartbeat IPC: 0.508022 cumulative IPC: 0.328308 (Simulation time: 2 hr 19 min 6 sec) 
Heartbeat CPU 0 instructions: 760000004 cycles: 2301352736 heartbeat IPC: 0.507809 cumulative IPC: 0.329844 (Simulation time: 2 hr 20 min 7 sec) 
Heartbeat CPU 0 instructions: 770000000 cycles: 2320974329 heartbeat IPC: 0.509642 cumulative IPC: 0.331364 (Simulation time: 2 hr 21 min 8 sec) 
Heartbeat CPU 0 instructions: 780000004 cycles: 2370505916 heartbeat IPC: 0.201891 cumulative IPC: 0.328659 (Simulation time: 2 hr 22 min 50 sec) 
Heartbeat CPU 0 instructions: 790000001 cycles: 2424766331 heartbeat IPC: 0.184296 cumulative IPC: 0.325428 (Simulation time: 2 hr 25 min 44 sec) 
Heartbeat CPU 0 instructions: 800000001 cycles: 2466319770 heartbeat IPC: 0.240654 cumulative IPC: 0.323999 (Simulation time: 2 hr 27 min 51 sec) 
Heartbeat CPU 0 instructions: 810000001 cycles: 2523245427 heartbeat IPC: 0.175668 cumulative IPC: 0.320653 (Simulation time: 2 hr 31 min 2 sec) 
Heartbeat CPU 0 instructions: 820000004 cycles: 2565951741 heartbeat IPC: 0.234157 cumulative IPC: 0.319213 (Simulation time: 2 hr 33 min 6 sec) 
Heartbeat CPU 0 instructions: 830000004 cycles: 2607890228 heartbeat IPC: 0.238444 cumulative IPC: 0.317914 (Simulation time: 2 hr 34 min 58 sec) 
Heartbeat CPU 0 instructions: 840000000 cycles: 2640737296 heartbeat IPC: 0.304441 cumulative IPC: 0.317746 (Simulation time: 2 hr 36 min 28 sec) 
Heartbeat CPU 0 instructions: 850000000 cycles: 2660738076 heartbeat IPC: 0.499981 cumulative IPC: 0.319116 (Simulation time: 2 hr 37 min 28 sec) 
Heartbeat CPU 0 instructions: 860000004 cycles: 2680491412 heartbeat IPC: 0.506244 cumulative IPC: 0.320495 (Simulation time: 2 hr 38 min 28 sec) 
Heartbeat CPU 0 instructions: 870000002 cycles: 2700237006 heartbeat IPC: 0.506442 cumulative IPC: 0.321855 (Simulation time: 2 hr 39 min 27 sec) 
Heartbeat CPU 0 instructions: 880000003 cycles: 2719593034 heartbeat IPC: 0.516635 cumulative IPC: 0.323242 (Simulation time: 2 hr 40 min 27 sec) 
Heartbeat CPU 0 instructions: 890000002 cycles: 2738898679 heartbeat IPC: 0.517983 cumulative IPC: 0.324615 (Simulation time: 2 hr 41 min 27 sec) 
Heartbeat CPU 0 instructions: 900000000 cycles: 2758222655 heartbeat IPC: 0.517492 cumulative IPC: 0.325966 (Simulation time: 2 hr 42 min 27 sec) 
Heartbeat CPU 0 instructions: 910000004 cycles: 2783477255 heartbeat IPC: 0.395968 cumulative IPC: 0.326601 (Simulation time: 2 hr 43 min 46 sec) 
Heartbeat CPU 0 instructions: 920000003 cycles: 2822015233 heartbeat IPC: 0.259484 cumulative IPC: 0.325684 (Simulation time: 2 hr 45 min 35 sec) 
Heartbeat CPU 0 instructions: 930000000 cycles: 2860452208 heartbeat IPC: 0.260166 cumulative IPC: 0.324804 (Simulation time: 2 hr 47 min 24 sec) 
Heartbeat CPU 0 instructions: 940000004 cycles: 2882871483 heartbeat IPC: 0.446045 cumulative IPC: 0.325747 (Simulation time: 2 hr 48 min 31 sec) 
Heartbeat CPU 0 instructions: 950000002 cycles: 2903073144 heartbeat IPC: 0.495009 cumulative IPC: 0.326925 (Simulation time: 2 hr 49 min 32 sec) 
Heartbeat CPU 0 instructions: 960000001 cycles: 2923191338 heartbeat IPC: 0.497062 cumulative IPC: 0.328096 (Simulation time: 2 hr 50 min 33 sec) 
Heartbeat CPU 0 instructions: 970000000 cycles: 2943206242 heartbeat IPC: 0.499628 cumulative IPC: 0.329263 (Simulation time: 2 hr 51 min 34 sec) 
Heartbeat CPU 0 instructions: 980000002 cycles: 2963075152 heartbeat IPC: 0.503299 cumulative IPC: 0.33043 (Simulation time: 2 hr 52 min 36 sec) 
Heartbeat CPU 0 instructions: 990000001 cycles: 2982941108 heartbeat IPC: 0.503374 cumulative IPC: 0.331582 (Simulation time: 2 hr 53 min 37 sec) 
Heartbeat CPU 0 instructions: 1000000001 cycles: 3002764297 heartbeat IPC: 0.50446 cumulative IPC: 0.332723 (Simulation time: 2 hr 54 min 38 sec) 
Finished CPU 0 instructions: 1000000004 cycles: 3005815833 cumulative IPC: 0.332688 (Simulation time: 2 hr 54 min 46 sec) 

ChampSim completed all CPUs

Region of Interest Statistics

CPU 0 cumulative IPC: 0.332688 instructions: 1000000004 cycles: 3005815833
cpu0_DTLB TOTAL     ACCESS:  175600913  HIT:  173723019  MISS:    1877894
cpu0_DTLB LOAD      ACCESS:  122696430  HIT:  120863491  MISS:    1832939
cpu0_DTLB RFO       ACCESS:   52904483  HIT:   52859528  MISS:      44955
cpu0_DTLB PREFETCH  ACCESS:          0  HIT:          0  MISS:          0
cpu0_DTLB WRITEBACK ACCESS:          0  HIT:          0  MISS:          0
cpu0_DTLB TRANSLATION ACCESS:          0  HIT:          0  MISS:          0
cpu0_DTLB PREFETCH  REQUESTED:          0  ISSUED:          0  USEFUL:          0  USELESS:          0
cpu0_DTLB AVERAGE MISS LATENCY: 26.9551 cycles
cpu0_ITLB TOTAL     ACCESS:   97329031  HIT:   97329023  MISS:          8
cpu0_ITLB LOAD      ACCESS:   97329031  HIT:   97329023  MISS:          8
cpu0_ITLB RFO       ACCESS:          0  HIT:          0  MISS:          0
cpu0_ITLB PREFETCH  ACCESS:          0  HIT:          0  MISS:          0
cpu0_ITLB WRITEBACK ACCESS:          0  HIT:          0  MISS:          0
cpu0_ITLB TRANSLATION ACCESS:          0  HIT:          0  MISS:          0
cpu0_ITLB PREFETCH  REQUESTED:          0  ISSUED:          0  USEFUL:          0  USELESS:          0
cpu0_ITLB AVERAGE MISS LATENCY: 519 cycles
cpu0_L1I TOTAL     ACCESS:       2842  HIT:       2740  MISS:        102
cpu0_L1I LOAD      ACCESS:       2842  HIT:       2740  MISS:        102
cpu0_L1I RFO       ACCESS:          0  HIT:          0  MISS:          0
cpu0_L1I PREFETCH  ACCESS:          0  HIT:          0  MISS:          0
cpu0_L1I WRITEBACK ACCESS:          0  HIT:          0  MISS:          0
cpu0_L1I TRANSLATION ACCESS:          0  HIT:          0  MISS:          0
cpu0_L1I PREFETCH  REQUESTED:          0  ISSUED:          0  USEFUL:          0  USELESS:          0
cpu0_L1I AVERAGE MISS LATENCY: 476.52 cycles
cpu0_STLB TOTAL     ACCESS:    1877902  HIT:       1733  MISS:    1876169
cpu0_STLB LOAD      ACCESS:    1832947  HIT:       1524  MISS:    1831423
cpu0_STLB RFO       ACCESS:      44955  HIT:        209  MISS:      44746
cpu0_STLB PREFETCH  ACCESS:          0  HIT:          0  MISS:          0
cpu0_STLB WRITEBACK ACCESS:          0  HIT:          0  MISS:          0
cpu0_STLB TRANSLATION ACCESS:          0  HIT:          0  MISS:          0
cpu0_STLB PREFETCH  REQUESTED:          0  ISSUED:          0  USEFUL:          0  USELESS:          0
cpu0_STLB AVERAGE MISS LATENCY: 17.9731 cycles
cpu0_L1D TOTAL     ACCESS:  311447215  HIT:  287412780  MISS:   24034435
cpu0_L1D LOAD      ACCESS:  114011487  HIT:  101517787  MISS:   12493700
cpu0_L1D RFO       ACCESS:  110377961  HIT:  107502844  MISS:    2875117
cpu0_L1D PREFETCH  ACCESS:   85181605  HIT:   76542253  MISS:    8639352
cpu0_L1D WRITEBACK ACCESS:          0  HIT:          0  MISS:          0
cpu0_L1D TRANSLATION ACCESS:    1876162  HIT:    1849896  MISS:      26266
cpu0_L1D PREFETCH  REQUESTED:  126960932  ISSUED:  123961531  USEFUL:    8855325  USELESS:    4959011
cpu0_L1D AVERAGE MISS LATENCY: 509.789 cycles
cpu0_L2C TOTAL     ACCESS:   31870962  HIT:    6892471  MISS:   24978491
cpu0_L2C LOAD      ACCESS:    7318823  HIT:         35  MISS:    7318788
cpu0_L2C RFO       ACCESS:    2875110  HIT:          4  MISS:    2875106
cpu0_L2C PREFETCH  ACCESS:   15409895  HIT:     630541  MISS:   14779354
cpu0_L2C WRITEBACK ACCESS:    6240868  HIT:    6240755  MISS:        113
cpu0_L2C TRANSLATION ACCESS:      26266  HIT:      21136  MISS:       5130
cpu0_L2C PREFETCH  REQUESTED:    1813922  ISSUED:    1803049  USEFUL:      59073  USELESS:     906033
cpu0_L2C AVERAGE MISS LATENCY: 634.637 cycles
LLC TOTAL     ACCESS:   31371741  HIT:    6280510  MISS:   25091231
LLC LOAD      ACCESS:    7318788  HIT:       1385  MISS:    7317403
LLC RFO       ACCESS:    2875106  HIT:       1269  MISS:    2873837
LLC PREFETCH  ACCESS:   14932055  HIT:      33122  MISS:   14898933
LLC WRITEBACK ACCESS:    6240662  HIT:    6240588  MISS:         74
LLC TRANSLATION ACCESS:       5130  HIT:       4146  MISS:        984
LLC PREFETCH  REQUESTED:          0  ISSUED:          0  USEFUL:          0  USELESS:          0
LLC AVERAGE MISS LATENCY: 610.652 cycles

DRAM Statistics
 CHANNEL 0
 RQ ROW_BUFFER_HIT:    5497177  ROW_BUFFER_MISS:   19593944
 DBUS AVG_CONGESTED_CYCLE:    3.93997
 WQ ROW_BUFFER_HIT:     564398  ROW_BUFFER_MISS:    5674120  FULL:          0


CPU 0 Branch Prediction Accuracy: 79.4606% MPKI: 14.2146 Average ROB Occupancy at Mispredict: 60.7949
Branch type MPKI
BRANCH_DIRECT_JUMP: 1.7e-05
BRANCH_INDIRECT: 0
BRANCH_CONDITIONAL: 14.2145
BRANCH_DIRECT_CALL: 3.2e-05
BRANCH_INDIRECT_CALL: 0
BRANCH_RETURN: 3.2e-05

