
*** ChampSim Multicore Out-of-Order Simulator ***

Warmup Instructions: 1000000
Simulation Instructions: 1000000000
Number of CPUs: 1
Off-chip DRAM Size: 4 GiB Channels: 1 Width: 64-bit Data Rate: 3200 MT/s

VirtualMemory physical capacity: 8588881920 num_ppages: 2096895
VirtualMemory page size: 4096 log2_page_size: 12

CPU 0 runs tracer/pin/traces/spec2k6/456.hmmer-191B.champsimtrace.xz
Basic BTB sets: 1024 ways: 8 indirect buffer size: 4096 RAS size: 64
cpu0_L1D next line prefetcher
cpu0_L2C IP-based stride prefetcher
WARNING: The extended signature CACHE::prefetch_line(ip, base_addr, pf_addr, fill_this_level, prefetch_metadata) is deprecated.
WARNING: Use CACHE::prefetch_line(pf_addr, fill_this_level, prefetch_metadata) instead.

Warmup complete CPU 0 instructions: 1000001 cycles: 395026 (Simulation time: 0 hr 0 min 3 sec) 

Heartbeat CPU 0 instructions: 10000001 cycles: 5585015 heartbeat IPC: 1.79051 cumulative IPC: 1.73411 (Simulation time: 0 hr 0 min 47 sec) 
Heartbeat CPU 0 instructions: 20000001 cycles: 14604596 heartbeat IPC: 1.1087 cumulative IPC: 1.33713 (Simulation time: 0 hr 1 min 49 sec) 
Heartbeat CPU 0 instructions: 30000001 cycles: 25412217 heartbeat IPC: 0.925273 cumulative IPC: 1.1592 (Simulation time: 0 hr 2 min 56 sec) 
Heartbeat CPU 0 instructions: 40000002 cycles: 35350824 heartbeat IPC: 1.00618 cumulative IPC: 1.11569 (Simulation time: 0 hr 4 min 3 sec) 
Heartbeat CPU 0 instructions: 50000001 cycles: 41199081 heartbeat IPC: 1.70991 cumulative IPC: 1.20086 (Simulation time: 0 hr 4 min 56 sec) 
Heartbeat CPU 0 instructions: 60000003 cycles: 45676309 heartbeat IPC: 2.23353 cumulative IPC: 1.30297 (Simulation time: 0 hr 5 min 44 sec) 
Heartbeat CPU 0 instructions: 70000002 cycles: 50334165 heartbeat IPC: 2.14691 cumulative IPC: 1.38168 (Simulation time: 0 hr 6 min 37 sec) 
Heartbeat CPU 0 instructions: 80000001 cycles: 54799606 heartbeat IPC: 2.23942 cumulative IPC: 1.45208 (Simulation time: 0 hr 7 min 30 sec) 
Heartbeat CPU 0 instructions: 90000000 cycles: 59261853 heartbeat IPC: 2.24102 cumulative IPC: 1.51189 (Simulation time: 0 hr 8 min 23 sec) 
Heartbeat CPU 0 instructions: 100000001 cycles: 63742590 heartbeat IPC: 2.23178 cumulative IPC: 1.56281 (Simulation time: 0 hr 9 min 15 sec) 
Heartbeat CPU 0 instructions: 110000003 cycles: 68895231 heartbeat IPC: 1.94075 cumulative IPC: 1.59124 (Simulation time: 0 hr 10 min 11 sec) 
Heartbeat CPU 0 instructions: 120000001 cycles: 73649308 heartbeat IPC: 2.10346 cumulative IPC: 1.62448 (Simulation time: 0 hr 11 min 4 sec) 
Heartbeat CPU 0 instructions: 130000001 cycles: 78343449 heartbeat IPC: 2.13032 cumulative IPC: 1.65494 (Simulation time: 0 hr 11 min 59 sec) 
Heartbeat CPU 0 instructions: 140000004 cycles: 82799648 heartbeat IPC: 2.24407 cumulative IPC: 1.6868 (Simulation time: 0 hr 12 min 53 sec) 
Heartbeat CPU 0 instructions: 150000000 cycles: 87240066 heartbeat IPC: 2.25204 cumulative IPC: 1.7157 (Simulation time: 0 hr 13 min 45 sec) 
Heartbeat CPU 0 instructions: 160000004 cycles: 92502527 heartbeat IPC: 1.90025 cumulative IPC: 1.72624 (Simulation time: 0 hr 14 min 42 sec) 
Heartbeat CPU 0 instructions: 170000002 cycles: 97188886 heartbeat IPC: 2.13385 cumulative IPC: 1.74598 (Simulation time: 0 hr 15 min 39 sec) 
Heartbeat CPU 0 instructions: 180000000 cycles: 105161299 heartbeat IPC: 1.25433 cumulative IPC: 1.70857 (Simulation time: 0 hr 16 min 52 sec) 
Heartbeat CPU 0 instructions: 190000004 cycles: 112567563 heartbeat IPC: 1.35021 cumulative IPC: 1.6849 (Simulation time: 0 hr 18 min 3 sec) 
Heartbeat CPU 0 instructions: 200000000 cycles: 117539500 heartbeat IPC: 2.01129 cumulative IPC: 1.69876 (Simulation time: 0 hr 19 min 5 sec) 
Heartbeat CPU 0 instructions: 210000004 cycles: 124728042 heartbeat IPC: 1.3911 cumulative IPC: 1.68097 (Simulation time: 0 hr 20 min 17 sec) 
Heartbeat CPU 0 instructions: 220000004 cycles: 135067907 heartbeat IPC: 0.967131 cumulative IPC: 1.62616 (Simulation time: 0 hr 21 min 44 sec) 
Heartbeat CPU 0 instructions: 230000003 cycles: 143650879 heartbeat IPC: 1.1651 cumulative IPC: 1.59854 (Simulation time: 0 hr 23 min 5 sec) 
Heartbeat CPU 0 instructions: 240000000 cycles: 148578712 heartbeat IPC: 2.02929 cumulative IPC: 1.61286 (Simulation time: 0 hr 24 min 7 sec) 
Heartbeat CPU 0 instructions: 250000000 cycles: 153111382 heartbeat IPC: 2.20621 cumulative IPC: 1.63047 (Simulation time: 0 hr 25 min 7 sec) 
Heartbeat CPU 0 instructions: 260000000 cycles: 157599147 heartbeat IPC: 2.22828 cumulative IPC: 1.64754 (Simulation time: 0 hr 26 min 7 sec) 
Heartbeat CPU 0 instructions: 270000000 cycles: 162221376 heartbeat IPC: 2.16346 cumulative IPC: 1.66228 (Simulation time: 0 hr 27 min 5 sec) 
Heartbeat CPU 0 instructions: 280000003 cycles: 169954537 heartbeat IPC: 1.29313 cumulative IPC: 1.64544 (Simulation time: 0 hr 28 min 23 sec) 
Heartbeat CPU 0 instructions: 290000002 cycles: 180538575 heartbeat IPC: 0.944819 cumulative IPC: 1.60428 (Simulation time: 0 hr 29 min 55 sec) 
Heartbeat CPU 0 instructions: 300000002 cycles: 188251650 heartbeat IPC: 1.2965 cumulative IPC: 1.59164 (Simulation time: 0 hr 31 min 15 sec) 
Heartbeat CPU 0 instructions: 310000004 cycles: 193046603 heartbeat IPC: 2.08553 cumulative IPC: 1.60393 (Simulation time: 0 hr 32 min 21 sec) 
Heartbeat CPU 0 instructions: 320000001 cycles: 197615448 heartbeat IPC: 2.18874 cumulative IPC: 1.61748 (Simulation time: 0 hr 33 min 26 sec) 
Heartbeat CPU 0 instructions: 330000003 cycles: 205167234 heartbeat IPC: 1.32419 cumulative IPC: 1.60666 (Simulation time: 0 hr 34 min 44 sec) 
Heartbeat CPU 0 instructions: 340000000 cycles: 215741114 heartbeat IPC: 0.945726 cumulative IPC: 1.57421 (Simulation time: 0 hr 36 min 20 sec) 
Heartbeat CPU 0 instructions: 350000002 cycles: 224496458 heartbeat IPC: 1.14216 cumulative IPC: 1.55733 (Simulation time: 0 hr 37 min 50 sec) 
Heartbeat CPU 0 instructions: 360000004 cycles: 228980798 heartbeat IPC: 2.22998 cumulative IPC: 1.57053 (Simulation time: 0 hr 38 min 55 sec) 
Heartbeat CPU 0 instructions: 370000001 cycles: 233765902 heartbeat IPC: 2.08982 cumulative IPC: 1.58117 (Simulation time: 0 hr 40 min 2 sec) 
Heartbeat CPU 0 instructions: 380000003 cycles: 239184402 heartbeat IPC: 1.84553 cumulative IPC: 1.58717 (Simulation time: 0 hr 41 min 14 sec) 
Heartbeat CPU 0 instructions: 390000003 cycles: 244413392 heartbeat IPC: 1.91242 cumulative IPC: 1.59414 (Simulation time: 0 hr 42 min 26 sec) 
Heartbeat CPU 0 instructions: 400000000 cycles: 249725120 heartbeat IPC: 1.88263 cumulative IPC: 1.60029 (Simulation time: 0 hr 43 min 39 sec) 
Heartbeat CPU 0 instructions: 410000004 cycles: 255092543 heartbeat IPC: 1.86309 cumulative IPC: 1.60583 (Simulation time: 0 hr 44 min 54 sec) 
Heartbeat CPU 0 instructions: 420000001 cycles: 261265914 heartbeat IPC: 1.61986 cumulative IPC: 1.60616 (Simulation time: 0 hr 46 min 13 sec) 
Heartbeat CPU 0 instructions: 430000001 cycles: 267451983 heartbeat IPC: 1.61654 cumulative IPC: 1.6064 (Simulation time: 0 hr 47 min 31 sec) 
Heartbeat CPU 0 instructions: 440000000 cycles: 272380391 heartbeat IPC: 2.02905 cumulative IPC: 1.61406 (Simulation time: 0 hr 48 min 42 sec) 
Heartbeat CPU 0 instructions: 450000002 cycles: 276865123 heartbeat IPC: 2.22979 cumulative IPC: 1.62405 (Simulation time: 0 hr 49 min 52 sec) 
Heartbeat CPU 0 instructions: 460000000 cycles: 282821240 heartbeat IPC: 1.67895 cumulative IPC: 1.6252 (Simulation time: 0 hr 51 min 6 sec) 
Heartbeat CPU 0 instructions: 470000004 cycles: 287919308 heartbeat IPC: 1.96153 cumulative IPC: 1.63117 (Simulation time: 0 hr 52 min 18 sec) 
Heartbeat CPU 0 instructions: 480000004 cycles: 292402719 heartbeat IPC: 2.23044 cumulative IPC: 1.64037 (Simulation time: 0 hr 53 min 27 sec) 
Heartbeat CPU 0 instructions: 490000003 cycles: 296883654 heartbeat IPC: 2.23168 cumulative IPC: 1.6493 (Simulation time: 0 hr 54 min 37 sec) 
Heartbeat CPU 0 instructions: 500000002 cycles: 301382255 heartbeat IPC: 2.22291 cumulative IPC: 1.65788 (Simulation time: 0 hr 55 min 46 sec) 
Heartbeat CPU 0 instructions: 510000000 cycles: 305974336 heartbeat IPC: 2.17766 cumulative IPC: 1.66569 (Simulation time: 0 hr 56 min 56 sec) 
Heartbeat CPU 0 instructions: 520000003 cycles: 312135797 heartbeat IPC: 1.62299 cumulative IPC: 1.66484 (Simulation time: 0 hr 58 min 14 sec) 
Heartbeat CPU 0 instructions: 530000000 cycles: 317006019 heartbeat IPC: 2.05329 cumulative IPC: 1.67082 (Simulation time: 0 hr 59 min 26 sec) 
Heartbeat CPU 0 instructions: 540000002 cycles: 321505329 heartbeat IPC: 2.22256 cumulative IPC: 1.67855 (Simulation time: 1 hr 0 min 35 sec) 
Heartbeat CPU 0 instructions: 550000003 cycles: 326008602 heartbeat IPC: 2.22061 cumulative IPC: 1.68605 (Simulation time: 1 hr 1 min 42 sec) 
Heartbeat CPU 0 instructions: 560000001 cycles: 330490716 heartbeat IPC: 2.23109 cumulative IPC: 1.69345 (Simulation time: 1 hr 2 min 49 sec) 
Heartbeat CPU 0 instructions: 570000004 cycles: 335127581 heartbeat IPC: 2.15663 cumulative IPC: 1.69986 (Simulation time: 1 hr 3 min 57 sec) 
Heartbeat CPU 0 instructions: 580000002 cycles: 340096292 heartbeat IPC: 2.01259 cumulative IPC: 1.70444 (Simulation time: 1 hr 5 min 6 sec) 
Heartbeat CPU 0 instructions: 590000000 cycles: 345539617 heartbeat IPC: 1.83711 cumulative IPC: 1.70653 (Simulation time: 1 hr 6 min 19 sec) 
Heartbeat CPU 0 instructions: 600000001 cycles: 350124054 heartbeat IPC: 2.18129 cumulative IPC: 1.71275 (Simulation time: 1 hr 7 min 27 sec) 
Heartbeat CPU 0 instructions: 610000003 cycles: 354770347 heartbeat IPC: 2.15225 cumulative IPC: 1.71852 (Simulation time: 1 hr 8 min 31 sec) 
Heartbeat CPU 0 instructions: 620000003 cycles: 359364858 heartbeat IPC: 2.17651 cumulative IPC: 1.72438 (Simulation time: 1 hr 9 min 37 sec) 
Heartbeat CPU 0 instructions: 630000001 cycles: 363976531 heartbeat IPC: 2.16841 cumulative IPC: 1.73001 (Simulation time: 1 hr 10 min 44 sec) 
Heartbeat CPU 0 instructions: 640000002 cycles: 368570957 heartbeat IPC: 2.17655 cumulative IPC: 1.73558 (Simulation time: 1 hr 11 min 50 sec) 
Heartbeat CPU 0 instructions: 650000000 cycles: 373164761 heartbeat IPC: 2.17684 cumulative IPC: 1.74102 (Simulation time: 1 hr 12 min 55 sec) 
Heartbeat CPU 0 instructions: 660000004 cycles: 377703790 heartbeat IPC: 2.20312 cumulative IPC: 1.74658 (Simulation time: 1 hr 14 min 0 sec) 
Heartbeat CPU 0 instructions: 670000001 cycles: 382223397 heartbeat IPC: 2.21258 cumulative IPC: 1.7521 (Simulation time: 1 hr 15 min 6 sec) 
Heartbeat CPU 0 instructions: 680000001 cycles: 386770661 heartbeat IPC: 2.19912 cumulative IPC: 1.75736 (Simulation time: 1 hr 16 min 11 sec) 
Heartbeat CPU 0 instructions: 690000001 cycles: 391353929 heartbeat IPC: 2.18185 cumulative IPC: 1.76233 (Simulation time: 1 hr 17 min 17 sec) 
Heartbeat CPU 0 instructions: 700000001 cycles: 396648576 heartbeat IPC: 1.8887 cumulative IPC: 1.76402 (Simulation time: 1 hr 18 min 28 sec) 
Heartbeat CPU 0 instructions: 710000001 cycles: 402254587 heartbeat IPC: 1.7838 cumulative IPC: 1.7643 (Simulation time: 1 hr 19 min 40 sec) 
Heartbeat CPU 0 instructions: 720000003 cycles: 406888567 heartbeat IPC: 2.15797 cumulative IPC: 1.76879 (Simulation time: 1 hr 20 min 48 sec) 
Heartbeat CPU 0 instructions: 730000000 cycles: 411470885 heartbeat IPC: 2.1823 cumulative IPC: 1.7734 (Simulation time: 1 hr 21 min 57 sec) 
Heartbeat CPU 0 instructions: 740000004 cycles: 416039466 heartbeat IPC: 2.18886 cumulative IPC: 1.77796 (Simulation time: 1 hr 23 min 3 sec) 
Heartbeat CPU 0 instructions: 750000001 cycles: 420635872 heartbeat IPC: 2.17561 cumulative IPC: 1.78231 (Simulation time: 1 hr 24 min 6 sec) 
Heartbeat CPU 0 instructions: 760000002 cycles: 425219609 heartbeat IPC: 2.18163 cumulative IPC: 1.78662 (Simulation time: 1 hr 25 min 10 sec) 
Heartbeat CPU 0 instructions: 770000000 cycles: 429745408 heartbeat IPC: 2.20955 cumulative IPC: 1.79108 (Simulation time: 1 hr 26 min 13 sec) 
Heartbeat CPU 0 instructions: 780000002 cycles: 434244196 heartbeat IPC: 2.22282 cumulative IPC: 1.79555 (Simulation time: 1 hr 27 min 17 sec) 
Heartbeat CPU 0 instructions: 790000001 cycles: 438813387 heartbeat IPC: 2.18857 cumulative IPC: 1.79965 (Simulation time: 1 hr 28 min 18 sec) 
Heartbeat CPU 0 instructions: 800000001 cycles: 443401392 heartbeat IPC: 2.1796 cumulative IPC: 1.80359 (Simulation time: 1 hr 29 min 21 sec) 
Heartbeat CPU 0 instructions: 810000002 cycles: 448010906 heartbeat IPC: 2.16943 cumulative IPC: 1.80735 (Simulation time: 1 hr 30 min 22 sec) 
Heartbeat CPU 0 instructions: 820000000 cycles: 452509302 heartbeat IPC: 2.22301 cumulative IPC: 1.81149 (Simulation time: 1 hr 31 min 25 sec) 
Heartbeat CPU 0 instructions: 830000003 cycles: 457028518 heartbeat IPC: 2.21277 cumulative IPC: 1.81546 (Simulation time: 1 hr 32 min 28 sec) 
Heartbeat CPU 0 instructions: 840000000 cycles: 465912361 heartbeat IPC: 1.12564 cumulative IPC: 1.8023 (Simulation time: 1 hr 33 min 53 sec) 
Heartbeat CPU 0 instructions: 850000002 cycles: 475267264 heartbeat IPC: 1.06896 cumulative IPC: 1.78785 (Simulation time: 1 hr 35 min 20 sec) 
Heartbeat CPU 0 instructions: 860000000 cycles: 484603208 heartbeat IPC: 1.07113 cumulative IPC: 1.77403 (Simulation time: 1 hr 36 min 47 sec) 
Heartbeat CPU 0 instructions: 870000004 cycles: 493982033 heartbeat IPC: 1.06623 cumulative IPC: 1.76058 (Simulation time: 1 hr 38 min 15 sec) 
Heartbeat CPU 0 instructions: 880000002 cycles: 503275207 heartbeat IPC: 1.07606 cumulative IPC: 1.74793 (Simulation time: 1 hr 39 min 42 sec) 
Heartbeat CPU 0 instructions: 890000002 cycles: 512210312 heartbeat IPC: 1.11918 cumulative IPC: 1.73695 (Simulation time: 1 hr 41 min 7 sec) 
Heartbeat CPU 0 instructions: 900000001 cycles: 517242671 heartbeat IPC: 1.98714 cumulative IPC: 1.73939 (Simulation time: 1 hr 42 min 11 sec) 
Heartbeat CPU 0 instructions: 910000000 cycles: 521684805 heartbeat IPC: 2.25117 cumulative IPC: 1.74375 (Simulation time: 1 hr 43 min 13 sec) 
Heartbeat CPU 0 instructions: 920000000 cycles: 526350530 heartbeat IPC: 2.14329 cumulative IPC: 1.7473 (Simulation time: 1 hr 44 min 16 sec) 
Heartbeat CPU 0 instructions: 930000001 cycles: 535958127 heartbeat IPC: 1.04084 cumulative IPC: 1.73462 (Simulation time: 1 hr 45 min 49 sec) 
Heartbeat CPU 0 instructions: 940000004 cycles: 544166581 heartbeat IPC: 1.21826 cumulative IPC: 1.72683 (Simulation time: 1 hr 47 min 13 sec) 
Heartbeat CPU 0 instructions: 950000000 cycles: 551236326 heartbeat IPC: 1.41448 cumulative IPC: 1.72282 (Simulation time: 1 hr 48 min 34 sec) 
Heartbeat CPU 0 instructions: 960000004 cycles: 555832688 heartbeat IPC: 2.17563 cumulative IPC: 1.72657 (Simulation time: 1 hr 49 min 42 sec) 
Heartbeat CPU 0 instructions: 970000001 cycles: 563075977 heartbeat IPC: 1.38059 cumulative IPC: 1.72211 (Simulation time: 1 hr 51 min 5 sec) 
Heartbeat CPU 0 instructions: 980000004 cycles: 570621561 heartbeat IPC: 1.32528 cumulative IPC: 1.71686 (Simulation time: 1 hr 52 min 27 sec) 
Heartbeat CPU 0 instructions: 990000002 cycles: 577281649 heartbeat IPC: 1.50148 cumulative IPC: 1.71438 (Simulation time: 1 hr 53 min 44 sec) 
Heartbeat CPU 0 instructions: 1000000000 cycles: 581874621 heartbeat IPC: 2.17724 cumulative IPC: 1.71803 (Simulation time: 1 hr 54 min 50 sec) 
Finished CPU 0 instructions: 1000000001 cycles: 581924933 cumulative IPC: 1.71843 (Simulation time: 1 hr 54 min 56 sec) 

ChampSim completed all CPUs

Region of Interest Statistics

CPU 0 cumulative IPC: 1.71843 instructions: 1000000001 cycles: 581924933
cpu0_DTLB TOTAL     ACCESS:  381478655  HIT:  381410555  MISS:      68100
cpu0_DTLB LOAD      ACCESS:  292205262  HIT:  292180993  MISS:      24269
cpu0_DTLB RFO       ACCESS:   89273393  HIT:   89229562  MISS:      43831
cpu0_DTLB PREFETCH  ACCESS:          0  HIT:          0  MISS:          0
cpu0_DTLB WRITEBACK ACCESS:          0  HIT:          0  MISS:          0
cpu0_DTLB TRANSLATION ACCESS:          0  HIT:          0  MISS:          0
cpu0_DTLB PREFETCH  REQUESTED:          0  ISSUED:          0  USEFUL:          0  USELESS:          0
cpu0_DTLB AVERAGE MISS LATENCY: 12.8607 cycles
cpu0_ITLB TOTAL     ACCESS:   15485985  HIT:   15485952  MISS:         33
cpu0_ITLB LOAD      ACCESS:   15485985  HIT:   15485952  MISS:         33
cpu0_ITLB RFO       ACCESS:          0  HIT:          0  MISS:          0
cpu0_ITLB PREFETCH  ACCESS:          0  HIT:          0  MISS:          0
cpu0_ITLB WRITEBACK ACCESS:          0  HIT:          0  MISS:          0
cpu0_ITLB TRANSLATION ACCESS:          0  HIT:          0  MISS:          0
cpu0_ITLB PREFETCH  REQUESTED:          0  ISSUED:          0  USEFUL:          0  USELESS:          0
cpu0_ITLB AVERAGE MISS LATENCY: 253.939 cycles
cpu0_L1I TOTAL     ACCESS:     825137  HIT:     824811  MISS:        326
cpu0_L1I LOAD      ACCESS:     825137  HIT:     824811  MISS:        326
cpu0_L1I RFO       ACCESS:          0  HIT:          0  MISS:          0
cpu0_L1I PREFETCH  ACCESS:          0  HIT:          0  MISS:          0
cpu0_L1I WRITEBACK ACCESS:          0  HIT:          0  MISS:          0
cpu0_L1I TRANSLATION ACCESS:          0  HIT:          0  MISS:          0
cpu0_L1I PREFETCH  REQUESTED:          0  ISSUED:          0  USEFUL:          0  USELESS:          0
cpu0_L1I AVERAGE MISS LATENCY: 574.939 cycles
cpu0_STLB TOTAL     ACCESS:      68133  HIT:      66914  MISS:       1219
cpu0_STLB LOAD      ACCESS:      24302  HIT:      24205  MISS:         97
cpu0_STLB RFO       ACCESS:      43831  HIT:      42709  MISS:       1122
cpu0_STLB PREFETCH  ACCESS:          0  HIT:          0  MISS:          0
cpu0_STLB WRITEBACK ACCESS:          0  HIT:          0  MISS:          0
cpu0_STLB TRANSLATION ACCESS:          0  HIT:          0  MISS:          0
cpu0_STLB PREFETCH  REQUESTED:          0  ISSUED:          0  USEFUL:          0  USELESS:          0
cpu0_STLB AVERAGE MISS LATENCY: 221.734 cycles
cpu0_L1D TOTAL     ACCESS:  678243879  HIT:  672782708  MISS:    5461171
cpu0_L1D LOAD      ACCESS:  319483136  HIT:  319085451  MISS:     397685
cpu0_L1D RFO       ACCESS:   67410571  HIT:   66205829  MISS:    1204742
cpu0_L1D PREFETCH  ACCESS:  291349303  HIT:  287491033  MISS:    3858270
cpu0_L1D WRITEBACK ACCESS:          0  HIT:          0  MISS:          0
cpu0_L1D TRANSLATION ACCESS:        869  HIT:        395  MISS:        474
cpu0_L1D PREFETCH  REQUESTED:  319938998  ISSUED:  296004672  USEFUL:    4088776  USELESS:      50001
cpu0_L1D AVERAGE MISS LATENCY: 131.822 cycles
cpu0_L2C TOTAL     ACCESS:    8288385  HIT:    5266400  MISS:    3021985
cpu0_L2C LOAD      ACCESS:     392946  HIT:     323277  MISS:      69669
cpu0_L2C RFO       ACCESS:     928960  HIT:       4413  MISS:     924547
cpu0_L2C PREFETCH  ACCESS:    4291477  HIT:    2264127  MISS:    2027350
cpu0_L2C WRITEBACK ACCESS:    2674528  HIT:    2674151  MISS:        377
cpu0_L2C TRANSLATION ACCESS:        474  HIT:        432  MISS:         42
cpu0_L2C PREFETCH  REQUESTED:     164902  ISSUED:     161136  USEFUL:       7563  USELESS:       7752
cpu0_L2C AVERAGE MISS LATENCY: 346.408 cycles
LLC TOTAL     ACCESS:    5682122  HIT:    4659495  MISS:    1022627
LLC LOAD      ACCESS:      69668  HIT:      60178  MISS:       9490
LLC RFO       ACCESS:     924547  HIT:     577501  MISS:     347046
LLC PREFETCH  ACCESS:    2028203  HIT:    1362356  MISS:     665847
LLC WRITEBACK ACCESS:    2659662  HIT:    2659438  MISS:        224
LLC TRANSLATION ACCESS:         42  HIT:         22  MISS:         20
LLC PREFETCH  REQUESTED:          0  ISSUED:          0  USEFUL:          0  USELESS:          0
LLC AVERAGE MISS LATENCY: 944.97 cycles

DRAM Statistics
 CHANNEL 0
 RQ ROW_BUFFER_HIT:      11375  ROW_BUFFER_MISS:    1010111
 DBUS AVG_CONGESTED_CYCLE:    3.99186
 WQ ROW_BUFFER_HIT:     109667  ROW_BUFFER_MISS:     816083  FULL:          0


CPU 0 Branch Prediction Accuracy: 99.3347% MPKI: 0.294153 Average ROB Occupancy at Mispredict: 80.3961
Branch type MPKI
BRANCH_DIRECT_JUMP: 6.9e-05
BRANCH_INDIRECT: 0.000371
BRANCH_CONDITIONAL: 0.293517
BRANCH_DIRECT_CALL: 8.5e-05
BRANCH_INDIRECT_CALL: 2.7e-05
BRANCH_RETURN: 8.4e-05

