
*** ChampSim Multicore Out-of-Order Simulator ***

Warmup Instructions: 1000000
Simulation Instructions: 1000000000
Number of CPUs: 1
Off-chip DRAM Size: 4 GiB Channels: 1 Width: 64-bit Data Rate: 3200 MT/s

VirtualMemory physical capacity: 8588881920 num_ppages: 2096895
VirtualMemory page size: 4096 log2_page_size: 12

CPU 0 runs tracer/pin/traces/spec2k6/470.lbm-1274B.champsimtrace.xz
Basic BTB sets: 1024 ways: 8 indirect buffer size: 4096 RAS size: 64
cpu0_L1D next line prefetcher
cpu0_L2C IP-based stride prefetcher
WARNING: The extended signature CACHE::prefetch_line(ip, base_addr, pf_addr, fill_this_level, prefetch_metadata) is deprecated.
WARNING: Use CACHE::prefetch_line(pf_addr, fill_this_level, prefetch_metadata) instead.

Warmup complete CPU 0 instructions: 1000002 cycles: 250095 (Simulation time: 0 hr 0 min 3 sec) 

Heartbeat CPU 0 instructions: 10000002 cycles: 50405668 heartbeat IPC: 0.19839 cumulative IPC: 0.179442 (Simulation time: 0 hr 4 min 45 sec) 
Heartbeat CPU 0 instructions: 20000004 cycles: 106438316 heartbeat IPC: 0.178467 cumulative IPC: 0.178928 (Simulation time: 0 hr 10 min 17 sec) 
Heartbeat CPU 0 instructions: 30000003 cycles: 162772962 heartbeat IPC: 0.177511 cumulative IPC: 0.178436 (Simulation time: 0 hr 16 min 10 sec) 
Heartbeat CPU 0 instructions: 40000000 cycles: 219010409 heartbeat IPC: 0.177817 cumulative IPC: 0.178277 (Simulation time: 0 hr 21 min 58 sec) 
Heartbeat CPU 0 instructions: 50000002 cycles: 275202557 heartbeat IPC: 0.177961 cumulative IPC: 0.178213 (Simulation time: 0 hr 27 min 49 sec) 
Heartbeat CPU 0 instructions: 60000001 cycles: 331392204 heartbeat IPC: 0.177969 cumulative IPC: 0.178171 (Simulation time: 0 hr 33 min 39 sec) 
Heartbeat CPU 0 instructions: 70000003 cycles: 387680469 heartbeat IPC: 0.177657 cumulative IPC: 0.178097 (Simulation time: 0 hr 39 min 25 sec) 
Heartbeat CPU 0 instructions: 80000003 cycles: 443671603 heartbeat IPC: 0.1786 cumulative IPC: 0.17816 (Simulation time: 0 hr 44 min 56 sec) 
Heartbeat CPU 0 instructions: 90000002 cycles: 499817148 heartbeat IPC: 0.178108 cumulative IPC: 0.178154 (Simulation time: 0 hr 50 min 36 sec) 
Heartbeat CPU 0 instructions: 100000004 cycles: 556125619 heartbeat IPC: 0.177593 cumulative IPC: 0.178097 (Simulation time: 0 hr 56 min 11 sec) 
Heartbeat CPU 0 instructions: 110000001 cycles: 612292161 heartbeat IPC: 0.178042 cumulative IPC: 0.178092 (Simulation time: 1 hr 1 min 17 sec) 
Heartbeat CPU 0 instructions: 120000003 cycles: 668707511 heartbeat IPC: 0.177257 cumulative IPC: 0.178022 (Simulation time: 1 hr 6 min 34 sec) 
Heartbeat CPU 0 instructions: 130000004 cycles: 724980510 heartbeat IPC: 0.177705 cumulative IPC: 0.177997 (Simulation time: 1 hr 11 min 54 sec) 
Heartbeat CPU 0 instructions: 140000004 cycles: 781301683 heartbeat IPC: 0.177553 cumulative IPC: 0.177965 (Simulation time: 1 hr 17 min 23 sec) 
Heartbeat CPU 0 instructions: 150000004 cycles: 837207732 heartbeat IPC: 0.178872 cumulative IPC: 0.178026 (Simulation time: 1 hr 23 min 1 sec) 
Heartbeat CPU 0 instructions: 160000003 cycles: 893504216 heartbeat IPC: 0.177631 cumulative IPC: 0.178001 (Simulation time: 1 hr 28 min 14 sec) 
Heartbeat CPU 0 instructions: 170000000 cycles: 949612605 heartbeat IPC: 0.178226 cumulative IPC: 0.178014 (Simulation time: 1 hr 33 min 28 sec) 
Heartbeat CPU 0 instructions: 180000002 cycles: 1006016399 heartbeat IPC: 0.177293 cumulative IPC: 0.177974 (Simulation time: 1 hr 39 min 5 sec) 
Heartbeat CPU 0 instructions: 190000004 cycles: 1062204938 heartbeat IPC: 0.177972 cumulative IPC: 0.177974 (Simulation time: 1 hr 44 min 37 sec) 
Heartbeat CPU 0 instructions: 200000000 cycles: 1118415613 heartbeat IPC: 0.177902 cumulative IPC: 0.17797 (Simulation time: 1 hr 50 min 13 sec) 
Heartbeat CPU 0 instructions: 210000000 cycles: 1174356102 heartbeat IPC: 0.178761 cumulative IPC: 0.178008 (Simulation time: 1 hr 55 min 49 sec) 
Heartbeat CPU 0 instructions: 220000000 cycles: 1230653472 heartbeat IPC: 0.177628 cumulative IPC: 0.17799 (Simulation time: 2 hr 1 min 10 sec) 
Heartbeat CPU 0 instructions: 230000004 cycles: 1286873206 heartbeat IPC: 0.177874 cumulative IPC: 0.177985 (Simulation time: 2 hr 6 min 46 sec) 
Heartbeat CPU 0 instructions: 240000001 cycles: 1343207480 heartbeat IPC: 0.177512 cumulative IPC: 0.177965 (Simulation time: 2 hr 12 min 30 sec) 
Heartbeat CPU 0 instructions: 250000003 cycles: 1399446445 heartbeat IPC: 0.177813 cumulative IPC: 0.177959 (Simulation time: 2 hr 18 min 4 sec) 
Heartbeat CPU 0 instructions: 260000004 cycles: 1455611900 heartbeat IPC: 0.178045 cumulative IPC: 0.177963 (Simulation time: 2 hr 23 min 42 sec) 
Heartbeat CPU 0 instructions: 270000000 cycles: 1562406441 heartbeat IPC: 0.0936377 cumulative IPC: 0.172198 (Simulation time: 2 hr 34 min 4 sec) 
Heartbeat CPU 0 instructions: 280000004 cycles: 1618572036 heartbeat IPC: 0.178045 cumulative IPC: 0.172401 (Simulation time: 2 hr 39 min 39 sec) 
Heartbeat CPU 0 instructions: 290000001 cycles: 1674915250 heartbeat IPC: 0.177484 cumulative IPC: 0.172572 (Simulation time: 2 hr 45 min 18 sec) 
Heartbeat CPU 0 instructions: 300000004 cycles: 1730970409 heartbeat IPC: 0.178396 cumulative IPC: 0.17276 (Simulation time: 2 hr 50 min 35 sec) 
Heartbeat CPU 0 instructions: 310000000 cycles: 1788771866 heartbeat IPC: 0.173006 cumulative IPC: 0.172768 (Simulation time: 2 hr 56 min 14 sec) 
Heartbeat CPU 0 instructions: 320000004 cycles: 1848521123 heartbeat IPC: 0.167366 cumulative IPC: 0.172594 (Simulation time: 3 hr 1 min 54 sec) 
Heartbeat CPU 0 instructions: 330000003 cycles: 1909645829 heartbeat IPC: 0.1636 cumulative IPC: 0.172306 (Simulation time: 3 hr 7 min 47 sec) 
Heartbeat CPU 0 instructions: 340000004 cycles: 1972191380 heartbeat IPC: 0.159883 cumulative IPC: 0.171912 (Simulation time: 3 hr 13 min 10 sec) 
Heartbeat CPU 0 instructions: 350000000 cycles: 2036506927 heartbeat IPC: 0.155483 cumulative IPC: 0.171393 (Simulation time: 3 hr 18 min 36 sec) 
Heartbeat CPU 0 instructions: 360000004 cycles: 2101516646 heartbeat IPC: 0.153823 cumulative IPC: 0.170849 (Simulation time: 3 hr 23 min 35 sec) 
Heartbeat CPU 0 instructions: 370000004 cycles: 2165500730 heartbeat IPC: 0.156289 cumulative IPC: 0.170419 (Simulation time: 3 hr 28 min 52 sec) 
Heartbeat CPU 0 instructions: 380000001 cycles: 2229718670 heartbeat IPC: 0.15572 cumulative IPC: 0.169996 (Simulation time: 3 hr 34 min 10 sec) 
Heartbeat CPU 0 instructions: 390000004 cycles: 2293901879 heartbeat IPC: 0.155804 cumulative IPC: 0.169599 (Simulation time: 3 hr 38 min 58 sec) 
Heartbeat CPU 0 instructions: 400000002 cycles: 2357384223 heartbeat IPC: 0.157524 cumulative IPC: 0.169273 (Simulation time: 3 hr 43 min 40 sec) 
Heartbeat CPU 0 instructions: 410000000 cycles: 2418581121 heartbeat IPC: 0.163407 cumulative IPC: 0.169125 (Simulation time: 3 hr 48 min 16 sec) 
Heartbeat CPU 0 instructions: 420000002 cycles: 2478385826 heartbeat IPC: 0.167211 cumulative IPC: 0.169079 (Simulation time: 3 hr 52 min 34 sec) 
Heartbeat CPU 0 instructions: 430000002 cycles: 2536290078 heartbeat IPC: 0.172699 cumulative IPC: 0.169161 (Simulation time: 3 hr 56 min 51 sec) 
Heartbeat CPU 0 instructions: 440000000 cycles: 2592666004 heartbeat IPC: 0.177381 cumulative IPC: 0.16934 (Simulation time: 4 hr 0 min 53 sec) 
Heartbeat CPU 0 instructions: 450000003 cycles: 2649024087 heartbeat IPC: 0.177437 cumulative IPC: 0.169512 (Simulation time: 4 hr 4 min 43 sec) 
Heartbeat CPU 0 instructions: 460000004 cycles: 2705310854 heartbeat IPC: 0.177662 cumulative IPC: 0.169682 (Simulation time: 4 hr 8 min 30 sec) 
Heartbeat CPU 0 instructions: 470000003 cycles: 2761172998 heartbeat IPC: 0.179012 cumulative IPC: 0.169871 (Simulation time: 4 hr 12 min 21 sec) 
Heartbeat CPU 0 instructions: 480000000 cycles: 2817302741 heartbeat IPC: 0.178159 cumulative IPC: 0.170036 (Simulation time: 4 hr 16 min 3 sec) 
Heartbeat CPU 0 instructions: 490000002 cycles: 2873503398 heartbeat IPC: 0.177934 cumulative IPC: 0.17019 (Simulation time: 4 hr 19 min 39 sec) 
Heartbeat CPU 0 instructions: 500000004 cycles: 2929795533 heartbeat IPC: 0.177645 cumulative IPC: 0.170334 (Simulation time: 4 hr 23 min 25 sec) 
Heartbeat CPU 0 instructions: 510000001 cycles: 2985953006 heartbeat IPC: 0.178071 cumulative IPC: 0.170479 (Simulation time: 4 hr 26 min 44 sec) 
Heartbeat CPU 0 instructions: 520000003 cycles: 3042278378 heartbeat IPC: 0.17754 cumulative IPC: 0.17061 (Simulation time: 4 hr 30 min 5 sec) 
Heartbeat CPU 0 instructions: 530000004 cycles: 3098319067 heartbeat IPC: 0.178442 cumulative IPC: 0.170752 (Simulation time: 4 hr 33 min 25 sec) 
Heartbeat CPU 0 instructions: 540000004 cycles: 3154486151 heartbeat IPC: 0.17804 cumulative IPC: 0.170881 (Simulation time: 4 hr 36 min 44 sec) 
Heartbeat CPU 0 instructions: 550000001 cycles: 3210706485 heartbeat IPC: 0.177872 cumulative IPC: 0.171004 (Simulation time: 4 hr 40 min 1 sec) 
Heartbeat CPU 0 instructions: 560000003 cycles: 3267115323 heartbeat IPC: 0.177277 cumulative IPC: 0.171112 (Simulation time: 4 hr 43 min 19 sec) 
Heartbeat CPU 0 instructions: 570000000 cycles: 3323370978 heartbeat IPC: 0.17776 cumulative IPC: 0.171225 (Simulation time: 4 hr 46 min 38 sec) 
Heartbeat CPU 0 instructions: 580000002 cycles: 3379641829 heartbeat IPC: 0.177712 cumulative IPC: 0.171333 (Simulation time: 4 hr 49 min 55 sec) 
Heartbeat CPU 0 instructions: 590000003 cycles: 3435915668 heartbeat IPC: 0.177702 cumulative IPC: 0.171437 (Simulation time: 4 hr 53 min 12 sec) 
Heartbeat CPU 0 instructions: 600000000 cycles: 3491752851 heartbeat IPC: 0.179092 cumulative IPC: 0.171559 (Simulation time: 4 hr 56 min 31 sec) 
Heartbeat CPU 0 instructions: 610000000 cycles: 3548049251 heartbeat IPC: 0.177631 cumulative IPC: 0.171656 (Simulation time: 4 hr 59 min 54 sec) 
Heartbeat CPU 0 instructions: 620000002 cycles: 3604269542 heartbeat IPC: 0.177872 cumulative IPC: 0.171753 (Simulation time: 5 hr 3 min 41 sec) 
Heartbeat CPU 0 instructions: 630000004 cycles: 3660467231 heartbeat IPC: 0.177943 cumulative IPC: 0.171848 (Simulation time: 5 hr 8 min 5 sec) 
Heartbeat CPU 0 instructions: 640000002 cycles: 3716836427 heartbeat IPC: 0.177402 cumulative IPC: 0.171932 (Simulation time: 5 hr 13 min 13 sec) 
Heartbeat CPU 0 instructions: 650000003 cycles: 3772957447 heartbeat IPC: 0.178186 cumulative IPC: 0.172025 (Simulation time: 5 hr 18 min 58 sec) 
Heartbeat CPU 0 instructions: 660000004 cycles: 3828914098 heartbeat IPC: 0.17871 cumulative IPC: 0.172123 (Simulation time: 5 hr 24 min 52 sec) 
Heartbeat CPU 0 instructions: 670000004 cycles: 3885156908 heartbeat IPC: 0.177801 cumulative IPC: 0.172205 (Simulation time: 5 hr 30 min 42 sec) 
Heartbeat CPU 0 instructions: 680000001 cycles: 3941418364 heartbeat IPC: 0.177742 cumulative IPC: 0.172284 (Simulation time: 5 hr 36 min 32 sec) 
Heartbeat CPU 0 instructions: 690000003 cycles: 3997720884 heartbeat IPC: 0.177612 cumulative IPC: 0.172359 (Simulation time: 5 hr 42 min 21 sec) 
Heartbeat CPU 0 instructions: 700000002 cycles: 4057173348 heartbeat IPC: 0.168202 cumulative IPC: 0.172298 (Simulation time: 5 hr 48 min 35 sec) 
Heartbeat CPU 0 instructions: 710000002 cycles: 4160471006 heartbeat IPC: 0.0968076 cumulative IPC: 0.170424 (Simulation time: 5 hr 58 min 54 sec) 
Heartbeat CPU 0 instructions: 720000003 cycles: 4216555833 heartbeat IPC: 0.178301 cumulative IPC: 0.170528 (Simulation time: 6 hr 4 min 34 sec) 
Heartbeat CPU 0 instructions: 730000002 cycles: 4272887270 heartbeat IPC: 0.177521 cumulative IPC: 0.170621 (Simulation time: 6 hr 10 min 12 sec) 
Heartbeat CPU 0 instructions: 740000003 cycles: 4329656372 heartbeat IPC: 0.176152 cumulative IPC: 0.170693 (Simulation time: 6 hr 15 min 59 sec) 
Heartbeat CPU 0 instructions: 750000002 cycles: 4387852001 heartbeat IPC: 0.171834 cumulative IPC: 0.170708 (Simulation time: 6 hr 21 min 49 sec) 
Heartbeat CPU 0 instructions: 760000000 cycles: 4448625180 heartbeat IPC: 0.164546 cumulative IPC: 0.170624 (Simulation time: 6 hr 27 min 42 sec) 
Heartbeat CPU 0 instructions: 770000004 cycles: 4510148973 heartbeat IPC: 0.162539 cumulative IPC: 0.170514 (Simulation time: 6 hr 33 min 15 sec) 
Heartbeat CPU 0 instructions: 780000001 cycles: 4574376482 heartbeat IPC: 0.155696 cumulative IPC: 0.170306 (Simulation time: 6 hr 38 min 47 sec) 
Heartbeat CPU 0 instructions: 790000004 cycles: 4638507513 heartbeat IPC: 0.155931 cumulative IPC: 0.170107 (Simulation time: 6 hr 43 min 57 sec) 
Heartbeat CPU 0 instructions: 800000002 cycles: 4702310678 heartbeat IPC: 0.156732 cumulative IPC: 0.169925 (Simulation time: 6 hr 48 min 20 sec) 
Heartbeat CPU 0 instructions: 810000001 cycles: 4766675004 heartbeat IPC: 0.155366 cumulative IPC: 0.169729 (Simulation time: 6 hr 52 min 35 sec) 
Heartbeat CPU 0 instructions: 820000004 cycles: 4831944041 heartbeat IPC: 0.153212 cumulative IPC: 0.169506 (Simulation time: 6 hr 57 min 7 sec) 
Heartbeat CPU 0 instructions: 830000000 cycles: 4895615457 heartbeat IPC: 0.157056 cumulative IPC: 0.169344 (Simulation time: 7 hr 1 min 53 sec) 
Heartbeat CPU 0 instructions: 840000004 cycles: 4957626432 heartbeat IPC: 0.161262 cumulative IPC: 0.169243 (Simulation time: 7 hr 6 min 54 sec) 
Heartbeat CPU 0 instructions: 850000000 cycles: 5018211869 heartbeat IPC: 0.165056 cumulative IPC: 0.169192 (Simulation time: 7 hr 12 min 29 sec) 
Heartbeat CPU 0 instructions: 860000000 cycles: 5077420049 heartbeat IPC: 0.168896 cumulative IPC: 0.169189 (Simulation time: 7 hr 17 min 55 sec) 
Heartbeat CPU 0 instructions: 870000001 cycles: 5134693497 heartbeat IPC: 0.174601 cumulative IPC: 0.169249 (Simulation time: 7 hr 22 min 53 sec) 
Heartbeat CPU 0 instructions: 880000003 cycles: 5190939175 heartbeat IPC: 0.177791 cumulative IPC: 0.169342 (Simulation time: 7 hr 27 min 30 sec) 
Heartbeat CPU 0 instructions: 890000002 cycles: 5247160434 heartbeat IPC: 0.177869 cumulative IPC: 0.169433 (Simulation time: 7 hr 31 min 53 sec) 
Heartbeat CPU 0 instructions: 900000000 cycles: 5303535111 heartbeat IPC: 0.177385 cumulative IPC: 0.169518 (Simulation time: 7 hr 36 min 10 sec) 
Heartbeat CPU 0 instructions: 910000001 cycles: 5359841076 heartbeat IPC: 0.177601 cumulative IPC: 0.169602 (Simulation time: 7 hr 40 min 10 sec) 
Heartbeat CPU 0 instructions: 920000002 cycles: 5415711756 heartbeat IPC: 0.178985 cumulative IPC: 0.169699 (Simulation time: 7 hr 44 min 11 sec) 
Heartbeat CPU 0 instructions: 930000004 cycles: 5471901858 heartbeat IPC: 0.177967 cumulative IPC: 0.169784 (Simulation time: 7 hr 48 min 32 sec) 
Heartbeat CPU 0 instructions: 940000002 cycles: 5528199136 heartbeat IPC: 0.177628 cumulative IPC: 0.169864 (Simulation time: 7 hr 52 min 39 sec) 
Heartbeat CPU 0 instructions: 950000001 cycles: 5584597033 heartbeat IPC: 0.177312 cumulative IPC: 0.169939 (Simulation time: 7 hr 56 min 40 sec) 
Heartbeat CPU 0 instructions: 960000003 cycles: 5640772481 heartbeat IPC: 0.178014 cumulative IPC: 0.17002 (Simulation time: 8 hr 0 min 14 sec) 
Heartbeat CPU 0 instructions: 970000000 cycles: 5697027016 heartbeat IPC: 0.177763 cumulative IPC: 0.170096 (Simulation time: 8 hr 3 min 47 sec) 
Heartbeat CPU 0 instructions: 980000003 cycles: 5752866454 heartbeat IPC: 0.179085 cumulative IPC: 0.170183 (Simulation time: 8 hr 7 min 18 sec) 
Heartbeat CPU 0 instructions: 990000003 cycles: 5809210435 heartbeat IPC: 0.177481 cumulative IPC: 0.170254 (Simulation time: 8 hr 10 min 44 sec) 
Heartbeat CPU 0 instructions: 1000000003 cycles: 5865465919 heartbeat IPC: 0.17776 cumulative IPC: 0.170326 (Simulation time: 8 hr 14 min 9 sec) 
Finished CPU 0 instructions: 1000000001 cycles: 5870716402 cumulative IPC: 0.170337 (Simulation time: 8 hr 14 min 29 sec) 

ChampSim completed all CPUs

Region of Interest Statistics

CPU 0 cumulative IPC: 0.170337 instructions: 1000000001 cycles: 5870716402
cpu0_DTLB TOTAL     ACCESS:  141714301  HIT:  141250572  MISS:     463729
cpu0_DTLB LOAD      ACCESS:   74621346  HIT:   74505160  MISS:     116186
cpu0_DTLB RFO       ACCESS:   67092955  HIT:   66745412  MISS:     347543
cpu0_DTLB PREFETCH  ACCESS:          0  HIT:          0  MISS:          0
cpu0_DTLB WRITEBACK ACCESS:          0  HIT:          0  MISS:          0
cpu0_DTLB TRANSLATION ACCESS:          0  HIT:          0  MISS:          0
cpu0_DTLB PREFETCH  REQUESTED:          0  ISSUED:          0  USEFUL:          0  USELESS:          0
cpu0_DTLB AVERAGE MISS LATENCY: 274.382 cycles
cpu0_ITLB TOTAL     ACCESS:     548115  HIT:     548114  MISS:          1
cpu0_ITLB LOAD      ACCESS:     548115  HIT:     548114  MISS:          1
cpu0_ITLB RFO       ACCESS:          0  HIT:          0  MISS:          0
cpu0_ITLB PREFETCH  ACCESS:          0  HIT:          0  MISS:          0
cpu0_ITLB WRITEBACK ACCESS:          0  HIT:          0  MISS:          0
cpu0_ITLB TRANSLATION ACCESS:          0  HIT:          0  MISS:          0
cpu0_ITLB PREFETCH  REQUESTED:          0  ISSUED:          0  USEFUL:          0  USELESS:          0
cpu0_ITLB AVERAGE MISS LATENCY: 2091 cycles
cpu0_L1I TOTAL     ACCESS:         17  HIT:          9  MISS:          8
cpu0_L1I LOAD      ACCESS:         17  HIT:          9  MISS:          8
cpu0_L1I RFO       ACCESS:          0  HIT:          0  MISS:          0
cpu0_L1I PREFETCH  ACCESS:          0  HIT:          0  MISS:          0
cpu0_L1I WRITEBACK ACCESS:          0  HIT:          0  MISS:          0
cpu0_L1I TRANSLATION ACCESS:          0  HIT:          0  MISS:          0
cpu0_L1I PREFETCH  REQUESTED:          0  ISSUED:          0  USEFUL:          0  USELESS:          0
cpu0_L1I AVERAGE MISS LATENCY: 1508 cycles
cpu0_STLB TOTAL     ACCESS:     463730  HIT:         57  MISS:     463673
cpu0_STLB LOAD      ACCESS:     116187  HIT:         41  MISS:     116146
cpu0_STLB RFO       ACCESS:     347543  HIT:         16  MISS:     347527
cpu0_STLB PREFETCH  ACCESS:          0  HIT:          0  MISS:          0
cpu0_STLB WRITEBACK ACCESS:          0  HIT:          0  MISS:          0
cpu0_STLB TRANSLATION ACCESS:          0  HIT:          0  MISS:          0
cpu0_STLB PREFETCH  REQUESTED:          0  ISSUED:          0  USEFUL:          0  USELESS:          0
cpu0_STLB AVERAGE MISS LATENCY: 265.418 cycles
cpu0_L1D TOTAL     ACCESS:  227539623  HIT:  178449505  MISS:   49090118
cpu0_L1D LOAD      ACCESS:   65139894  HIT:   60176624  MISS:    4963270
cpu0_L1D RFO       ACCESS:  102573591  HIT:   61076280  MISS:   41497311
cpu0_L1D PREFETCH  ACCESS:   59362582  HIT:   56785240  MISS:    2577342
cpu0_L1D WRITEBACK ACCESS:          0  HIT:          0  MISS:          0
cpu0_L1D TRANSLATION ACCESS:     463556  HIT:     411361  MISS:      52195
cpu0_L1D PREFETCH  REQUESTED:   66824028  ISSUED:   65580506  USEFUL:    2830327  USELESS:      57459
cpu0_L1D AVERAGE MISS LATENCY: 838.093 cycles
cpu0_L2C TOTAL     ACCESS:   92289045  HIT:   61718667  MISS:   30570378
cpu0_L2C LOAD      ACCESS:    4652835  HIT:       6261  MISS:    4646574
cpu0_L2C RFO       ACCESS:   41497295  HIT:   18709066  MISS:   22788229
cpu0_L2C PREFETCH  ACCESS:    4589152  HIT:    1455638  MISS:    3133514
cpu0_L2C WRITEBACK ACCESS:   41497568  HIT:   41496282  MISS:       1286
cpu0_L2C TRANSLATION ACCESS:      52195  HIT:      51420  MISS:        775
cpu0_L2C PREFETCH  REQUESTED:    2850696  ISSUED:    2841469  USEFUL:     210920  USELESS:      41571
cpu0_L2C AVERAGE MISS LATENCY: 1348.18 cycles
LLC TOTAL     ACCESS:   54490667  HIT:   24393495  MISS:   30097172
LLC LOAD      ACCESS:    4646574  HIT:        439  MISS:    4646135
LLC RFO       ACCESS:   22788079  HIT:     559280  MISS:   22228799
LLC PREFETCH  ACCESS:    4265730  HIT:    1045188  MISS:    3220542
LLC WRITEBACK ACCESS:   22789509  HIT:   22788436  MISS:       1073
LLC TRANSLATION ACCESS:        775  HIT:        152  MISS:        623
LLC PREFETCH  REQUESTED:          0  ISSUED:          0  USEFUL:          0  USELESS:          0
LLC AVERAGE MISS LATENCY: 1358.95 cycles

DRAM Statistics
 CHANNEL 0
 RQ ROW_BUFFER_HIT:     386303  ROW_BUFFER_MISS:   29709794
 DBUS AVG_CONGESTED_CYCLE:    3.99816
 WQ ROW_BUFFER_HIT:     393236  ROW_BUFFER_MISS:   21833171  FULL:          0


CPU 0 Branch Prediction Accuracy: 99.7658% MPKI: 0.032932 Average ROB Occupancy at Mispredict: 127.583
Branch type MPKI
BRANCH_DIRECT_JUMP: 1e-06
BRANCH_INDIRECT: 0
BRANCH_CONDITIONAL: 0.032926
BRANCH_DIRECT_CALL: 2e-06
BRANCH_INDIRECT_CALL: 0
BRANCH_RETURN: 3e-06

