
*** ChampSim Multicore Out-of-Order Simulator ***

Warmup Instructions: 1000000
Simulation Instructions: 1000000000
Number of CPUs: 1
Off-chip DRAM Size: 4 GiB Channels: 1 Width: 64-bit Data Rate: 3200 MT/s

VirtualMemory physical capacity: 8588881920 num_ppages: 2096895
VirtualMemory page size: 4096 log2_page_size: 12

CPU 0 runs tracer/pin/traces/spec2k6/435.gromacs-228B.champsimtrace.xz
Basic BTB sets: 1024 ways: 8 indirect buffer size: 4096 RAS size: 64
cpu0_L1D next line prefetcher
cpu0_L2C IP-based stride prefetcher
WARNING: The extended signature CACHE::prefetch_line(ip, base_addr, pf_addr, fill_this_level, prefetch_metadata) is deprecated.
WARNING: Use CACHE::prefetch_line(pf_addr, fill_this_level, prefetch_metadata) instead.

Warmup complete CPU 0 instructions: 1000004 cycles: 250106 (Simulation time: 0 hr 0 min 2 sec) 

Heartbeat CPU 0 instructions: 10000001 cycles: 3332136 heartbeat IPC: 3.00108 cumulative IPC: 2.92015 (Simulation time: 0 hr 0 min 42 sec) 
Heartbeat CPU 0 instructions: 20000003 cycles: 6719935 heartbeat IPC: 2.95177 cumulative IPC: 2.93671 (Simulation time: 0 hr 1 min 29 sec) 
Heartbeat CPU 0 instructions: 30000004 cycles: 10148817 heartbeat IPC: 2.9164 cumulative IPC: 2.92967 (Simulation time: 0 hr 2 min 21 sec) 
Heartbeat CPU 0 instructions: 40000001 cycles: 13569586 heartbeat IPC: 2.92332 cumulative IPC: 2.92804 (Simulation time: 0 hr 3 min 14 sec) 
Heartbeat CPU 0 instructions: 50000004 cycles: 16980749 heartbeat IPC: 2.93155 cumulative IPC: 2.92876 (Simulation time: 0 hr 4 min 1 sec) 
Heartbeat CPU 0 instructions: 60000000 cycles: 21704759 heartbeat IPC: 2.11684 cumulative IPC: 2.74999 (Simulation time: 0 hr 4 min 56 sec) 
Heartbeat CPU 0 instructions: 70000001 cycles: 26696347 heartbeat IPC: 2.00337 cumulative IPC: 2.60907 (Simulation time: 0 hr 5 min 49 sec) 
Heartbeat CPU 0 instructions: 80000002 cycles: 34889725 heartbeat IPC: 1.2205 cumulative IPC: 2.28063 (Simulation time: 0 hr 7 min 1 sec) 
Heartbeat CPU 0 instructions: 90000000 cycles: 40422699 heartbeat IPC: 1.80735 cumulative IPC: 2.21544 (Simulation time: 0 hr 8 min 9 sec) 
Heartbeat CPU 0 instructions: 100000003 cycles: 44457979 heartbeat IPC: 2.47814 cumulative IPC: 2.23942 (Simulation time: 0 hr 9 min 6 sec) 
Heartbeat CPU 0 instructions: 110000000 cycles: 47885210 heartbeat IPC: 2.91781 cumulative IPC: 2.28823 (Simulation time: 0 hr 9 min 57 sec) 
Heartbeat CPU 0 instructions: 120000002 cycles: 51294998 heartbeat IPC: 2.93273 cumulative IPC: 2.33128 (Simulation time: 0 hr 10 min 52 sec) 
Heartbeat CPU 0 instructions: 130000003 cycles: 54713715 heartbeat IPC: 2.92507 cumulative IPC: 2.36855 (Simulation time: 0 hr 11 min 49 sec) 
Heartbeat CPU 0 instructions: 140000004 cycles: 58136511 heartbeat IPC: 2.92159 cumulative IPC: 2.40125 (Simulation time: 0 hr 12 min 47 sec) 
Heartbeat CPU 0 instructions: 150000004 cycles: 61527130 heartbeat IPC: 2.94931 cumulative IPC: 2.43158 (Simulation time: 0 hr 13 min 50 sec) 
Heartbeat CPU 0 instructions: 160000000 cycles: 64907698 heartbeat IPC: 2.95808 cumulative IPC: 2.45911 (Simulation time: 0 hr 14 min 48 sec) 
Heartbeat CPU 0 instructions: 170000003 cycles: 68297332 heartbeat IPC: 2.95017 cumulative IPC: 2.48357 (Simulation time: 0 hr 15 min 44 sec) 
Heartbeat CPU 0 instructions: 180000003 cycles: 71700424 heartbeat IPC: 2.9385 cumulative IPC: 2.50524 (Simulation time: 0 hr 16 min 41 sec) 
Heartbeat CPU 0 instructions: 190000003 cycles: 75043579 heartbeat IPC: 2.99119 cumulative IPC: 2.52696 (Simulation time: 0 hr 17 min 37 sec) 
Heartbeat CPU 0 instructions: 200000001 cycles: 78374951 heartbeat IPC: 3.00177 cumulative IPC: 2.5472 (Simulation time: 0 hr 18 min 29 sec) 
Heartbeat CPU 0 instructions: 210000004 cycles: 81679884 heartbeat IPC: 3.02578 cumulative IPC: 2.56663 (Simulation time: 0 hr 19 min 25 sec) 
Heartbeat CPU 0 instructions: 220000000 cycles: 85017036 heartbeat IPC: 2.99657 cumulative IPC: 2.58355 (Simulation time: 0 hr 20 min 22 sec) 
Heartbeat CPU 0 instructions: 230000000 cycles: 88365684 heartbeat IPC: 2.98628 cumulative IPC: 2.59886 (Simulation time: 0 hr 21 min 14 sec) 
Heartbeat CPU 0 instructions: 240000003 cycles: 91706009 heartbeat IPC: 2.99372 cumulative IPC: 2.61328 (Simulation time: 0 hr 21 min 58 sec) 
Heartbeat CPU 0 instructions: 250000001 cycles: 95049107 heartbeat IPC: 2.99124 cumulative IPC: 2.62661 (Simulation time: 0 hr 22 min 45 sec) 
Heartbeat CPU 0 instructions: 260000003 cycles: 99922155 heartbeat IPC: 2.0521 cumulative IPC: 2.59852 (Simulation time: 0 hr 23 min 40 sec) 
Heartbeat CPU 0 instructions: 270000003 cycles: 104697247 heartbeat IPC: 2.0942 cumulative IPC: 2.57547 (Simulation time: 0 hr 24 min 27 sec) 
Heartbeat CPU 0 instructions: 280000002 cycles: 113370851 heartbeat IPC: 1.15292 cumulative IPC: 2.46639 (Simulation time: 0 hr 25 min 41 sec) 
Heartbeat CPU 0 instructions: 290000000 cycles: 118454248 heartbeat IPC: 1.96719 cumulative IPC: 2.44492 (Simulation time: 0 hr 26 min 39 sec) 
Heartbeat CPU 0 instructions: 300000003 cycles: 122350647 heartbeat IPC: 2.56647 cumulative IPC: 2.4488 (Simulation time: 0 hr 27 min 36 sec) 
Heartbeat CPU 0 instructions: 310000003 cycles: 125763284 heartbeat IPC: 2.93029 cumulative IPC: 2.46189 (Simulation time: 0 hr 28 min 32 sec) 
Heartbeat CPU 0 instructions: 320000002 cycles: 129169838 heartbeat IPC: 2.93552 cumulative IPC: 2.47441 (Simulation time: 0 hr 29 min 28 sec) 
Heartbeat CPU 0 instructions: 330000001 cycles: 132587095 heartbeat IPC: 2.92632 cumulative IPC: 2.48608 (Simulation time: 0 hr 30 min 25 sec) 
Heartbeat CPU 0 instructions: 340000003 cycles: 135996591 heartbeat IPC: 2.93299 cumulative IPC: 2.4973 (Simulation time: 0 hr 31 min 22 sec) 
Heartbeat CPU 0 instructions: 350000000 cycles: 139381437 heartbeat IPC: 2.95434 cumulative IPC: 2.50842 (Simulation time: 0 hr 32 min 15 sec) 
Heartbeat CPU 0 instructions: 360000001 cycles: 142759230 heartbeat IPC: 2.96051 cumulative IPC: 2.51914 (Simulation time: 0 hr 33 min 9 sec) 
Heartbeat CPU 0 instructions: 370000001 cycles: 146150311 heartbeat IPC: 2.94891 cumulative IPC: 2.52913 (Simulation time: 0 hr 34 min 2 sec) 
Heartbeat CPU 0 instructions: 380000000 cycles: 149537338 heartbeat IPC: 2.95244 cumulative IPC: 2.53873 (Simulation time: 0 hr 34 min 59 sec) 
Heartbeat CPU 0 instructions: 390000003 cycles: 152868625 heartbeat IPC: 3.00184 cumulative IPC: 2.54884 (Simulation time: 0 hr 35 min 56 sec) 
Heartbeat CPU 0 instructions: 400000004 cycles: 156201077 heartbeat IPC: 3.00079 cumulative IPC: 2.5585 (Simulation time: 0 hr 36 min 53 sec) 
Heartbeat CPU 0 instructions: 410000000 cycles: 159499945 heartbeat IPC: 3.03134 cumulative IPC: 2.56829 (Simulation time: 0 hr 37 min 51 sec) 
Heartbeat CPU 0 instructions: 420000001 cycles: 162841211 heartbeat IPC: 2.99288 cumulative IPC: 2.57702 (Simulation time: 0 hr 38 min 46 sec) 
Heartbeat CPU 0 instructions: 430000003 cycles: 166189690 heartbeat IPC: 2.98643 cumulative IPC: 2.58528 (Simulation time: 0 hr 39 min 44 sec) 
Heartbeat CPU 0 instructions: 440000004 cycles: 169530710 heartbeat IPC: 2.9931 cumulative IPC: 2.59333 (Simulation time: 0 hr 40 min 38 sec) 
Heartbeat CPU 0 instructions: 450000000 cycles: 172870992 heartbeat IPC: 2.99376 cumulative IPC: 2.60108 (Simulation time: 0 hr 41 min 31 sec) 
Heartbeat CPU 0 instructions: 460000000 cycles: 177897479 heartbeat IPC: 1.98946 cumulative IPC: 2.58377 (Simulation time: 0 hr 42 min 33 sec) 
Heartbeat CPU 0 instructions: 470000004 cycles: 182959084 heartbeat IPC: 1.97566 cumulative IPC: 2.56692 (Simulation time: 0 hr 43 min 30 sec) 
Heartbeat CPU 0 instructions: 480000000 cycles: 191533603 heartbeat IPC: 1.16625 cumulative IPC: 2.50414 (Simulation time: 0 hr 44 min 46 sec) 
Heartbeat CPU 0 instructions: 490000002 cycles: 196373857 heartbeat IPC: 2.06601 cumulative IPC: 2.49332 (Simulation time: 0 hr 45 min 35 sec) 
Heartbeat CPU 0 instructions: 500000003 cycles: 200164127 heartbeat IPC: 2.63833 cumulative IPC: 2.49607 (Simulation time: 0 hr 46 min 22 sec) 
Heartbeat CPU 0 instructions: 510000004 cycles: 203572716 heartbeat IPC: 2.93377 cumulative IPC: 2.50341 (Simulation time: 0 hr 47 min 10 sec) 
Heartbeat CPU 0 instructions: 520000003 cycles: 206981912 heartbeat IPC: 2.93324 cumulative IPC: 2.5105 (Simulation time: 0 hr 47 min 58 sec) 
Heartbeat CPU 0 instructions: 530000001 cycles: 210395279 heartbeat IPC: 2.92966 cumulative IPC: 2.51731 (Simulation time: 0 hr 48 min 45 sec) 
Heartbeat CPU 0 instructions: 540000000 cycles: 213802855 heartbeat IPC: 2.93464 cumulative IPC: 2.52397 (Simulation time: 0 hr 49 min 33 sec) 
Heartbeat CPU 0 instructions: 550000004 cycles: 217187565 heartbeat IPC: 2.95446 cumulative IPC: 2.53068 (Simulation time: 0 hr 50 min 18 sec) 
Heartbeat CPU 0 instructions: 560000004 cycles: 220564386 heartbeat IPC: 2.96137 cumulative IPC: 2.53728 (Simulation time: 0 hr 51 min 3 sec) 
Heartbeat CPU 0 instructions: 570000004 cycles: 223957805 heartbeat IPC: 2.94688 cumulative IPC: 2.5435 (Simulation time: 0 hr 51 min 49 sec) 
Heartbeat CPU 0 instructions: 580000000 cycles: 227337971 heartbeat IPC: 2.95843 cumulative IPC: 2.54967 (Simulation time: 0 hr 52 min 35 sec) 
Heartbeat CPU 0 instructions: 590000004 cycles: 230663029 heartbeat IPC: 3.00747 cumulative IPC: 2.55628 (Simulation time: 0 hr 53 min 23 sec) 
Heartbeat CPU 0 instructions: 600000003 cycles: 233996759 heartbeat IPC: 2.99964 cumulative IPC: 2.5626 (Simulation time: 0 hr 54 min 11 sec) 
Heartbeat CPU 0 instructions: 610000003 cycles: 237301731 heartbeat IPC: 3.02574 cumulative IPC: 2.56906 (Simulation time: 0 hr 54 min 58 sec) 
Heartbeat CPU 0 instructions: 620000001 cycles: 240641094 heartbeat IPC: 2.99458 cumulative IPC: 2.57497 (Simulation time: 0 hr 55 min 46 sec) 
Heartbeat CPU 0 instructions: 630000003 cycles: 243990918 heartbeat IPC: 2.98523 cumulative IPC: 2.58061 (Simulation time: 0 hr 56 min 34 sec) 
Heartbeat CPU 0 instructions: 640000003 cycles: 247333444 heartbeat IPC: 2.99175 cumulative IPC: 2.58617 (Simulation time: 0 hr 57 min 23 sec) 
Heartbeat CPU 0 instructions: 650000000 cycles: 250669246 heartbeat IPC: 2.99778 cumulative IPC: 2.59166 (Simulation time: 0 hr 58 min 10 sec) 
Heartbeat CPU 0 instructions: 660000000 cycles: 255859388 heartbeat IPC: 1.92673 cumulative IPC: 2.57815 (Simulation time: 0 hr 59 min 1 sec) 
Heartbeat CPU 0 instructions: 670000002 cycles: 261144119 heartbeat IPC: 1.89224 cumulative IPC: 2.56426 (Simulation time: 0 hr 59 min 52 sec) 
Heartbeat CPU 0 instructions: 680000001 cycles: 269668346 heartbeat IPC: 1.17313 cumulative IPC: 2.52025 (Simulation time: 1 hr 0 min 56 sec) 
Heartbeat CPU 0 instructions: 690000001 cycles: 274306663 heartbeat IPC: 2.15595 cumulative IPC: 2.51408 (Simulation time: 1 hr 1 min 44 sec) 
Heartbeat CPU 0 instructions: 700000000 cycles: 277975239 heartbeat IPC: 2.72585 cumulative IPC: 2.51688 (Simulation time: 1 hr 2 min 33 sec) 
Heartbeat CPU 0 instructions: 710000000 cycles: 281383088 heartbeat IPC: 2.9344 cumulative IPC: 2.52194 (Simulation time: 1 hr 3 min 20 sec) 
Heartbeat CPU 0 instructions: 720000004 cycles: 284793538 heartbeat IPC: 2.93217 cumulative IPC: 2.52685 (Simulation time: 1 hr 4 min 6 sec) 
Heartbeat CPU 0 instructions: 730000001 cycles: 288210474 heartbeat IPC: 2.9266 cumulative IPC: 2.5316 (Simulation time: 1 hr 4 min 53 sec) 
Heartbeat CPU 0 instructions: 740000000 cycles: 291610229 heartbeat IPC: 2.94139 cumulative IPC: 2.53638 (Simulation time: 1 hr 5 min 40 sec) 
Heartbeat CPU 0 instructions: 750000001 cycles: 294994303 heartbeat IPC: 2.95502 cumulative IPC: 2.54119 (Simulation time: 1 hr 6 min 24 sec) 
Heartbeat CPU 0 instructions: 760000002 cycles: 298374435 heartbeat IPC: 2.95846 cumulative IPC: 2.54592 (Simulation time: 1 hr 7 min 10 sec) 
Heartbeat CPU 0 instructions: 770000002 cycles: 301771968 heartbeat IPC: 2.94331 cumulative IPC: 2.5504 (Simulation time: 1 hr 7 min 54 sec) 
Heartbeat CPU 0 instructions: 780000003 cycles: 305138882 heartbeat IPC: 2.97008 cumulative IPC: 2.55503 (Simulation time: 1 hr 8 min 39 sec) 
Heartbeat CPU 0 instructions: 790000000 cycles: 308460923 heartbeat IPC: 3.0102 cumulative IPC: 2.55994 (Simulation time: 1 hr 9 min 25 sec) 
Heartbeat CPU 0 instructions: 800000001 cycles: 311792951 heartbeat IPC: 3.00118 cumulative IPC: 2.56466 (Simulation time: 1 hr 10 min 9 sec) 
Heartbeat CPU 0 instructions: 810000003 cycles: 315104047 heartbeat IPC: 3.02015 cumulative IPC: 2.56945 (Simulation time: 1 hr 10 min 52 sec) 
Heartbeat CPU 0 instructions: 820000003 cycles: 318444873 heartbeat IPC: 2.99327 cumulative IPC: 2.5739 (Simulation time: 1 hr 11 min 35 sec) 
Heartbeat CPU 0 instructions: 830000001 cycles: 321791007 heartbeat IPC: 2.98852 cumulative IPC: 2.57821 (Simulation time: 1 hr 12 min 19 sec) 
Heartbeat CPU 0 instructions: 840000000 cycles: 325139442 heartbeat IPC: 2.98647 cumulative IPC: 2.58242 (Simulation time: 1 hr 13 min 1 sec) 
Heartbeat CPU 0 instructions: 850000001 cycles: 328472693 heartbeat IPC: 3.00007 cumulative IPC: 2.58666 (Simulation time: 1 hr 13 min 42 sec) 
Heartbeat CPU 0 instructions: 860000003 cycles: 333881751 heartbeat IPC: 1.84875 cumulative IPC: 2.5747 (Simulation time: 1 hr 14 min 27 sec) 
Heartbeat CPU 0 instructions: 870000003 cycles: 340188921 heartbeat IPC: 1.5855 cumulative IPC: 2.55634 (Simulation time: 1 hr 15 min 17 sec) 
Heartbeat CPU 0 instructions: 880000000 cycles: 348972571 heartbeat IPC: 1.13848 cumulative IPC: 2.52063 (Simulation time: 1 hr 16 min 5 sec) 
Heartbeat CPU 0 instructions: 890000002 cycles: 359653098 heartbeat IPC: 0.936284 cumulative IPC: 2.47355 (Simulation time: 1 hr 16 min 53 sec) 
Heartbeat CPU 0 instructions: 900000002 cycles: 369198591 heartbeat IPC: 1.04761 cumulative IPC: 2.43665 (Simulation time: 1 hr 17 min 39 sec) 
Heartbeat CPU 0 instructions: 910000004 cycles: 380162759 heartbeat IPC: 0.912062 cumulative IPC: 2.39266 (Simulation time: 1 hr 18 min 25 sec) 
Heartbeat CPU 0 instructions: 920000002 cycles: 388791830 heartbeat IPC: 1.15887 cumulative IPC: 2.36525 (Simulation time: 1 hr 19 min 14 sec) 
Heartbeat CPU 0 instructions: 930000000 cycles: 399146188 heartbeat IPC: 0.965777 cumulative IPC: 2.32893 (Simulation time: 1 hr 20 min 1 sec) 
Heartbeat CPU 0 instructions: 940000004 cycles: 408469388 heartbeat IPC: 1.07259 cumulative IPC: 2.30023 (Simulation time: 1 hr 20 min 47 sec) 
Heartbeat CPU 0 instructions: 950000000 cycles: 418917114 heartbeat IPC: 0.957146 cumulative IPC: 2.26672 (Simulation time: 1 hr 21 min 33 sec) 
Heartbeat CPU 0 instructions: 960000000 cycles: 427699976 heartbeat IPC: 1.13858 cumulative IPC: 2.24354 (Simulation time: 1 hr 22 min 19 sec) 
Heartbeat CPU 0 instructions: 970000001 cycles: 437720513 heartbeat IPC: 0.997951 cumulative IPC: 2.21501 (Simulation time: 1 hr 23 min 6 sec) 
Heartbeat CPU 0 instructions: 980000002 cycles: 447720679 heartbeat IPC: 0.999983 cumulative IPC: 2.18785 (Simulation time: 1 hr 23 min 50 sec) 
Heartbeat CPU 0 instructions: 990000003 cycles: 452782309 heartbeat IPC: 1.97565 cumulative IPC: 2.18548 (Simulation time: 1 hr 24 min 31 sec) 
Heartbeat CPU 0 instructions: 1000000003 cycles: 459296568 heartbeat IPC: 1.53509 cumulative IPC: 2.17625 (Simulation time: 1 hr 25 min 13 sec) 
Finished CPU 0 instructions: 1000000000 cycles: 459390184 cumulative IPC: 2.1768 (Simulation time: 1 hr 25 min 16 sec) 

ChampSim completed all CPUs

Region of Interest Statistics

CPU 0 cumulative IPC: 2.1768 instructions: 1000000000 cycles: 459390184
cpu0_DTLB TOTAL     ACCESS:  164643857  HIT:  163300793  MISS:    1343064
cpu0_DTLB LOAD      ACCESS:  115867453  HIT:  114550766  MISS:    1316687
cpu0_DTLB RFO       ACCESS:   48776404  HIT:   48750027  MISS:      26377
cpu0_DTLB PREFETCH  ACCESS:          0  HIT:          0  MISS:          0
cpu0_DTLB WRITEBACK ACCESS:          0  HIT:          0  MISS:          0
cpu0_DTLB TRANSLATION ACCESS:          0  HIT:          0  MISS:          0
cpu0_DTLB PREFETCH  REQUESTED:          0  ISSUED:          0  USEFUL:          0  USELESS:          0
cpu0_DTLB AVERAGE MISS LATENCY: 9.42808 cycles
cpu0_ITLB TOTAL     ACCESS:   17764340  HIT:   17764200  MISS:        140
cpu0_ITLB LOAD      ACCESS:   17764340  HIT:   17764200  MISS:        140
cpu0_ITLB RFO       ACCESS:          0  HIT:          0  MISS:          0
cpu0_ITLB PREFETCH  ACCESS:          0  HIT:          0  MISS:          0
cpu0_ITLB WRITEBACK ACCESS:          0  HIT:          0  MISS:          0
cpu0_ITLB TRANSLATION ACCESS:          0  HIT:          0  MISS:          0
cpu0_ITLB PREFETCH  REQUESTED:          0  ISSUED:          0  USEFUL:          0  USELESS:          0
cpu0_ITLB AVERAGE MISS LATENCY: 172.964 cycles
cpu0_L1I TOTAL     ACCESS:   17989462  HIT:   17985200  MISS:       4262
cpu0_L1I LOAD      ACCESS:   17989462  HIT:   17985200  MISS:       4262
cpu0_L1I RFO       ACCESS:          0  HIT:          0  MISS:          0
cpu0_L1I PREFETCH  ACCESS:          0  HIT:          0  MISS:          0
cpu0_L1I WRITEBACK ACCESS:          0  HIT:          0  MISS:          0
cpu0_L1I TRANSLATION ACCESS:          0  HIT:          0  MISS:          0
cpu0_L1I PREFETCH  REQUESTED:          0  ISSUED:          0  USEFUL:          0  USELESS:          0
cpu0_L1I AVERAGE MISS LATENCY: 503.792 cycles
cpu0_STLB TOTAL     ACCESS:    1343204  HIT:    1337582  MISS:       5622
cpu0_STLB LOAD      ACCESS:    1316827  HIT:    1312641  MISS:       4186
cpu0_STLB RFO       ACCESS:      26377  HIT:      24941  MISS:       1436
cpu0_STLB PREFETCH  ACCESS:          0  HIT:          0  MISS:          0
cpu0_STLB WRITEBACK ACCESS:          0  HIT:          0  MISS:          0
cpu0_STLB TRANSLATION ACCESS:          0  HIT:          0  MISS:          0
cpu0_STLB PREFETCH  REQUESTED:          0  ISSUED:          0  USEFUL:          0  USELESS:          0
cpu0_STLB AVERAGE MISS LATENCY: 99.4676 cycles
cpu0_L1D TOTAL     ACCESS:  372906566  HIT:  360423949  MISS:   12482617
cpu0_L1D LOAD      ACCESS:  126460551  HIT:  120150697  MISS:    6309854
cpu0_L1D RFO       ACCESS:  126771867  HIT:  126476379  MISS:     295488
cpu0_L1D PREFETCH  ACCESS:  119668569  HIT:  113794118  MISS:    5874451
cpu0_L1D WRITEBACK ACCESS:          0  HIT:          0  MISS:          0
cpu0_L1D TRANSLATION ACCESS:       5579  HIT:       2755  MISS:       2824
cpu0_L1D PREFETCH  REQUESTED:  131320855  ISSUED:  128626141  USEFUL:    3998615  USELESS:    2670699
cpu0_L1D AVERAGE MISS LATENCY: 33.9361 cycles
cpu0_L2C TOTAL     ACCESS:   15715323  HIT:   13178483  MISS:    2536840
cpu0_L2C LOAD      ACCESS:    5517934  HIT:    4801873  MISS:     716061
cpu0_L2C RFO       ACCESS:     295375  HIT:      59811  MISS:     235564
cpu0_L2C PREFETCH  ACCESS:    6922306  HIT:    5339920  MISS:    1582386
cpu0_L2C WRITEBACK ACCESS:    2976884  HIT:    2975189  MISS:       1695
cpu0_L2C TRANSLATION ACCESS:       2824  HIT:       1690  MISS:       1134
cpu0_L2C PREFETCH  REQUESTED:     266450  ISSUED:     262436  USEFUL:      12648  USELESS:       9359
cpu0_L2C AVERAGE MISS LATENCY: 136.245 cycles
LLC TOTAL     ACCESS:    3395726  HIT:    2765954  MISS:     629772
LLC LOAD      ACCESS:     716057  HIT:     688534  MISS:      27523
LLC RFO       ACCESS:     235561  HIT:      68247  MISS:     167314
LLC PREFETCH  ACCESS:    1583134  HIT:    1148297  MISS:     434837
LLC WRITEBACK ACCESS:     859840  HIT:     859782  MISS:         58
LLC TRANSLATION ACCESS:       1134  HIT:       1094  MISS:         40
LLC PREFETCH  REQUESTED:          0  ISSUED:          0  USEFUL:          0  USELESS:          0
LLC AVERAGE MISS LATENCY: 441.347 cycles

DRAM Statistics
 CHANNEL 0
 RQ ROW_BUFFER_HIT:     107568  ROW_BUFFER_MISS:     521443
 DBUS AVG_CONGESTED_CYCLE:    3.95383
 WQ ROW_BUFFER_HIT:      21574  ROW_BUFFER_MISS:     184942  FULL:          0


CPU 0 Branch Prediction Accuracy: 91.6282% MPKI: 2.00031 Average ROB Occupancy at Mispredict: 53.7989
Branch type MPKI
BRANCH_DIRECT_JUMP: 0.000156
BRANCH_INDIRECT: 3.8e-05
BRANCH_CONDITIONAL: 1.99984
BRANCH_DIRECT_CALL: 0.00014
BRANCH_INDIRECT_CALL: 4e-06
BRANCH_RETURN: 0.000134

