
*** ChampSim Multicore Out-of-Order Simulator ***

Warmup Instructions: 1000000
Simulation Instructions: 1000000000
Number of CPUs: 1
Off-chip DRAM Size: 4 GiB Channels: 1 Width: 64-bit Data Rate: 3200 MT/s

VirtualMemory physical capacity: 8588881920 num_ppages: 2096895
VirtualMemory page size: 4096 log2_page_size: 12

CPU 0 runs tracer/pin/traces/spec2k17/631.deepsjeng_s-928B.champsimtrace.xz
Basic BTB sets: 1024 ways: 8 indirect buffer size: 4096 RAS size: 64
cpu0_L1D next line prefetcher
cpu0_L2C IP-based stride prefetcher
WARNING: The extended signature CACHE::prefetch_line(ip, base_addr, pf_addr, fill_this_level, prefetch_metadata) is deprecated.
WARNING: Use CACHE::prefetch_line(pf_addr, fill_this_level, prefetch_metadata) instead.

Warmup complete CPU 0 instructions: 1000001 cycles: 250362 (Simulation time: 0 hr 0 min 4 sec) 

Heartbeat CPU 0 instructions: 10000003 cycles: 6817166 heartbeat IPC: 1.46689 cumulative IPC: 1.37053 (Simulation time: 0 hr 0 min 45 sec) 
Heartbeat CPU 0 instructions: 20000001 cycles: 14128080 heartbeat IPC: 1.36782 cumulative IPC: 1.3691 (Simulation time: 0 hr 1 min 35 sec) 
Heartbeat CPU 0 instructions: 30000001 cycles: 21344078 heartbeat IPC: 1.38581 cumulative IPC: 1.37482 (Simulation time: 0 hr 2 min 24 sec) 
Heartbeat CPU 0 instructions: 40000004 cycles: 28512471 heartbeat IPC: 1.39501 cumulative IPC: 1.37994 (Simulation time: 0 hr 3 min 13 sec) 
Heartbeat CPU 0 instructions: 50000004 cycles: 35653136 heartbeat IPC: 1.40043 cumulative IPC: 1.38407 (Simulation time: 0 hr 4 min 4 sec) 
Heartbeat CPU 0 instructions: 60000000 cycles: 42918135 heartbeat IPC: 1.37646 cumulative IPC: 1.38278 (Simulation time: 0 hr 4 min 56 sec) 
Heartbeat CPU 0 instructions: 70000002 cycles: 50104019 heartbeat IPC: 1.39162 cumulative IPC: 1.38405 (Simulation time: 0 hr 5 min 47 sec) 
Heartbeat CPU 0 instructions: 80000002 cycles: 57402607 heartbeat IPC: 1.37013 cumulative IPC: 1.38227 (Simulation time: 0 hr 6 min 40 sec) 
Heartbeat CPU 0 instructions: 90000001 cycles: 64591113 heartbeat IPC: 1.39111 cumulative IPC: 1.38326 (Simulation time: 0 hr 7 min 34 sec) 
Heartbeat CPU 0 instructions: 100000004 cycles: 71848781 heartbeat IPC: 1.37785 cumulative IPC: 1.38271 (Simulation time: 0 hr 8 min 29 sec) 
Heartbeat CPU 0 instructions: 110000000 cycles: 79084900 heartbeat IPC: 1.38196 cumulative IPC: 1.38264 (Simulation time: 0 hr 9 min 23 sec) 
Heartbeat CPU 0 instructions: 120000001 cycles: 86172687 heartbeat IPC: 1.41088 cumulative IPC: 1.38497 (Simulation time: 0 hr 10 min 18 sec) 
Heartbeat CPU 0 instructions: 130000003 cycles: 93502709 heartbeat IPC: 1.36425 cumulative IPC: 1.38334 (Simulation time: 0 hr 11 min 13 sec) 
Heartbeat CPU 0 instructions: 140000000 cycles: 100678369 heartbeat IPC: 1.3936 cumulative IPC: 1.38408 (Simulation time: 0 hr 12 min 8 sec) 
Heartbeat CPU 0 instructions: 150000002 cycles: 107737895 heartbeat IPC: 1.41653 cumulative IPC: 1.38621 (Simulation time: 0 hr 13 min 3 sec) 
Heartbeat CPU 0 instructions: 160000003 cycles: 114982910 heartbeat IPC: 1.38026 cumulative IPC: 1.38583 (Simulation time: 0 hr 13 min 57 sec) 
Heartbeat CPU 0 instructions: 170000001 cycles: 122202090 heartbeat IPC: 1.3852 cumulative IPC: 1.38579 (Simulation time: 0 hr 14 min 53 sec) 
Heartbeat CPU 0 instructions: 180000004 cycles: 129414928 heartbeat IPC: 1.38642 cumulative IPC: 1.38583 (Simulation time: 0 hr 15 min 48 sec) 
Heartbeat CPU 0 instructions: 190000004 cycles: 136741704 heartbeat IPC: 1.36486 cumulative IPC: 1.3847 (Simulation time: 0 hr 16 min 44 sec) 
Heartbeat CPU 0 instructions: 200000001 cycles: 144119015 heartbeat IPC: 1.35551 cumulative IPC: 1.38321 (Simulation time: 0 hr 17 min 39 sec) 
Heartbeat CPU 0 instructions: 210000000 cycles: 151181375 heartbeat IPC: 1.41596 cumulative IPC: 1.38474 (Simulation time: 0 hr 18 min 33 sec) 
Heartbeat CPU 0 instructions: 220000003 cycles: 158466158 heartbeat IPC: 1.37272 cumulative IPC: 1.38419 (Simulation time: 0 hr 19 min 28 sec) 
Heartbeat CPU 0 instructions: 230000000 cycles: 165839785 heartbeat IPC: 1.35618 cumulative IPC: 1.38294 (Simulation time: 0 hr 20 min 24 sec) 
Heartbeat CPU 0 instructions: 240000003 cycles: 172995375 heartbeat IPC: 1.39751 cumulative IPC: 1.38354 (Simulation time: 0 hr 21 min 20 sec) 
Heartbeat CPU 0 instructions: 250000000 cycles: 180114618 heartbeat IPC: 1.40464 cumulative IPC: 1.38438 (Simulation time: 0 hr 22 min 14 sec) 
Heartbeat CPU 0 instructions: 260000000 cycles: 187277119 heartbeat IPC: 1.39616 cumulative IPC: 1.38483 (Simulation time: 0 hr 23 min 9 sec) 
Heartbeat CPU 0 instructions: 270000002 cycles: 194381723 heartbeat IPC: 1.40754 cumulative IPC: 1.38566 (Simulation time: 0 hr 24 min 4 sec) 
Heartbeat CPU 0 instructions: 280000001 cycles: 201584608 heartbeat IPC: 1.38833 cumulative IPC: 1.38576 (Simulation time: 0 hr 24 min 59 sec) 
Heartbeat CPU 0 instructions: 290000000 cycles: 208765433 heartbeat IPC: 1.3926 cumulative IPC: 1.38599 (Simulation time: 0 hr 25 min 56 sec) 
Heartbeat CPU 0 instructions: 300000002 cycles: 215893368 heartbeat IPC: 1.40293 cumulative IPC: 1.38655 (Simulation time: 0 hr 26 min 50 sec) 
Heartbeat CPU 0 instructions: 310000000 cycles: 223111995 heartbeat IPC: 1.3853 cumulative IPC: 1.38651 (Simulation time: 0 hr 27 min 44 sec) 
Heartbeat CPU 0 instructions: 320000000 cycles: 230237300 heartbeat IPC: 1.40345 cumulative IPC: 1.38704 (Simulation time: 0 hr 28 min 39 sec) 
Heartbeat CPU 0 instructions: 330000000 cycles: 237476582 heartbeat IPC: 1.38135 cumulative IPC: 1.38686 (Simulation time: 0 hr 29 min 35 sec) 
Heartbeat CPU 0 instructions: 340000004 cycles: 244518875 heartbeat IPC: 1.41999 cumulative IPC: 1.38782 (Simulation time: 0 hr 30 min 30 sec) 
Heartbeat CPU 0 instructions: 350000002 cycles: 251579369 heartbeat IPC: 1.41633 cumulative IPC: 1.38862 (Simulation time: 0 hr 31 min 23 sec) 
Heartbeat CPU 0 instructions: 360000000 cycles: 258593522 heartbeat IPC: 1.42569 cumulative IPC: 1.38962 (Simulation time: 0 hr 32 min 18 sec) 
Heartbeat CPU 0 instructions: 370000002 cycles: 265634412 heartbeat IPC: 1.42028 cumulative IPC: 1.39044 (Simulation time: 0 hr 33 min 13 sec) 
Heartbeat CPU 0 instructions: 380000000 cycles: 272639464 heartbeat IPC: 1.42754 cumulative IPC: 1.39139 (Simulation time: 0 hr 34 min 8 sec) 
Heartbeat CPU 0 instructions: 390000000 cycles: 279821206 heartbeat IPC: 1.39242 cumulative IPC: 1.39142 (Simulation time: 0 hr 35 min 2 sec) 
Heartbeat CPU 0 instructions: 400000001 cycles: 286990508 heartbeat IPC: 1.39484 cumulative IPC: 1.3915 (Simulation time: 0 hr 35 min 56 sec) 
Heartbeat CPU 0 instructions: 410000003 cycles: 294347210 heartbeat IPC: 1.35931 cumulative IPC: 1.3907 (Simulation time: 0 hr 36 min 51 sec) 
Heartbeat CPU 0 instructions: 420000000 cycles: 301479985 heartbeat IPC: 1.40198 cumulative IPC: 1.39097 (Simulation time: 0 hr 37 min 46 sec) 
Heartbeat CPU 0 instructions: 430000004 cycles: 308534898 heartbeat IPC: 1.41745 cumulative IPC: 1.39157 (Simulation time: 0 hr 38 min 41 sec) 
Heartbeat CPU 0 instructions: 440000000 cycles: 315603437 heartbeat IPC: 1.41472 cumulative IPC: 1.39209 (Simulation time: 0 hr 39 min 35 sec) 
Heartbeat CPU 0 instructions: 450000003 cycles: 322726512 heartbeat IPC: 1.40389 cumulative IPC: 1.39235 (Simulation time: 0 hr 40 min 30 sec) 
Heartbeat CPU 0 instructions: 460000000 cycles: 329821823 heartbeat IPC: 1.40938 cumulative IPC: 1.39272 (Simulation time: 0 hr 41 min 24 sec) 
Heartbeat CPU 0 instructions: 470000000 cycles: 336794931 heartbeat IPC: 1.43408 cumulative IPC: 1.39357 (Simulation time: 0 hr 42 min 18 sec) 
Heartbeat CPU 0 instructions: 480000002 cycles: 343787369 heartbeat IPC: 1.43012 cumulative IPC: 1.39432 (Simulation time: 0 hr 43 min 11 sec) 
Heartbeat CPU 0 instructions: 490000003 cycles: 350782174 heartbeat IPC: 1.42963 cumulative IPC: 1.39502 (Simulation time: 0 hr 44 min 5 sec) 
Heartbeat CPU 0 instructions: 500000002 cycles: 357885869 heartbeat IPC: 1.40772 cumulative IPC: 1.39528 (Simulation time: 0 hr 44 min 59 sec) 
Heartbeat CPU 0 instructions: 510000004 cycles: 364902787 heartbeat IPC: 1.42513 cumulative IPC: 1.39585 (Simulation time: 0 hr 45 min 52 sec) 
Heartbeat CPU 0 instructions: 520000001 cycles: 371907129 heartbeat IPC: 1.42769 cumulative IPC: 1.39645 (Simulation time: 0 hr 46 min 46 sec) 
Heartbeat CPU 0 instructions: 530000003 cycles: 378965178 heartbeat IPC: 1.41682 cumulative IPC: 1.39683 (Simulation time: 0 hr 47 min 41 sec) 
Heartbeat CPU 0 instructions: 540000000 cycles: 385978611 heartbeat IPC: 1.42583 cumulative IPC: 1.39736 (Simulation time: 0 hr 48 min 36 sec) 
Heartbeat CPU 0 instructions: 550000001 cycles: 392891031 heartbeat IPC: 1.44667 cumulative IPC: 1.39822 (Simulation time: 0 hr 49 min 30 sec) 
Heartbeat CPU 0 instructions: 560000003 cycles: 399856019 heartbeat IPC: 1.43575 cumulative IPC: 1.39888 (Simulation time: 0 hr 50 min 23 sec) 
Heartbeat CPU 0 instructions: 570000004 cycles: 406711651 heartbeat IPC: 1.45865 cumulative IPC: 1.39989 (Simulation time: 0 hr 51 min 18 sec) 
Heartbeat CPU 0 instructions: 580000000 cycles: 413708439 heartbeat IPC: 1.42923 cumulative IPC: 1.40038 (Simulation time: 0 hr 52 min 13 sec) 
Heartbeat CPU 0 instructions: 590000000 cycles: 420952989 heartbeat IPC: 1.38035 cumulative IPC: 1.40004 (Simulation time: 0 hr 53 min 7 sec) 
Heartbeat CPU 0 instructions: 600000000 cycles: 428077076 heartbeat IPC: 1.40369 cumulative IPC: 1.4001 (Simulation time: 0 hr 54 min 0 sec) 
Heartbeat CPU 0 instructions: 610000003 cycles: 435256781 heartbeat IPC: 1.39282 cumulative IPC: 1.39998 (Simulation time: 0 hr 54 min 54 sec) 
Heartbeat CPU 0 instructions: 620000003 cycles: 442322726 heartbeat IPC: 1.41524 cumulative IPC: 1.40022 (Simulation time: 0 hr 55 min 49 sec) 
Heartbeat CPU 0 instructions: 630000000 cycles: 449369523 heartbeat IPC: 1.41908 cumulative IPC: 1.40052 (Simulation time: 0 hr 56 min 42 sec) 
Heartbeat CPU 0 instructions: 640000001 cycles: 456424167 heartbeat IPC: 1.41751 cumulative IPC: 1.40078 (Simulation time: 0 hr 57 min 37 sec) 
Heartbeat CPU 0 instructions: 650000000 cycles: 463513746 heartbeat IPC: 1.41052 cumulative IPC: 1.40093 (Simulation time: 0 hr 58 min 32 sec) 
Heartbeat CPU 0 instructions: 660000002 cycles: 470508693 heartbeat IPC: 1.4296 cumulative IPC: 1.40136 (Simulation time: 0 hr 59 min 27 sec) 
Heartbeat CPU 0 instructions: 670000001 cycles: 477352844 heartbeat IPC: 1.4611 cumulative IPC: 1.40221 (Simulation time: 1 hr 0 min 20 sec) 
Heartbeat CPU 0 instructions: 680000004 cycles: 484270748 heartbeat IPC: 1.44552 cumulative IPC: 1.40283 (Simulation time: 1 hr 1 min 14 sec) 
Heartbeat CPU 0 instructions: 690000000 cycles: 491463358 heartbeat IPC: 1.39032 cumulative IPC: 1.40265 (Simulation time: 1 hr 2 min 9 sec) 
Heartbeat CPU 0 instructions: 700000002 cycles: 498628244 heartbeat IPC: 1.3957 cumulative IPC: 1.40255 (Simulation time: 1 hr 3 min 4 sec) 
Heartbeat CPU 0 instructions: 710000004 cycles: 505617243 heartbeat IPC: 1.43082 cumulative IPC: 1.40294 (Simulation time: 1 hr 3 min 57 sec) 
Heartbeat CPU 0 instructions: 720000001 cycles: 512522752 heartbeat IPC: 1.44812 cumulative IPC: 1.40355 (Simulation time: 1 hr 4 min 51 sec) 
Heartbeat CPU 0 instructions: 730000000 cycles: 519493851 heartbeat IPC: 1.43449 cumulative IPC: 1.40397 (Simulation time: 1 hr 5 min 45 sec) 
Heartbeat CPU 0 instructions: 740000000 cycles: 526369783 heartbeat IPC: 1.45435 cumulative IPC: 1.40462 (Simulation time: 1 hr 6 min 39 sec) 
Heartbeat CPU 0 instructions: 750000000 cycles: 533527006 heartbeat IPC: 1.39719 cumulative IPC: 1.40452 (Simulation time: 1 hr 7 min 33 sec) 
Heartbeat CPU 0 instructions: 760000001 cycles: 540619447 heartbeat IPC: 1.40995 cumulative IPC: 1.4046 (Simulation time: 1 hr 8 min 27 sec) 
Heartbeat CPU 0 instructions: 770000001 cycles: 547799422 heartbeat IPC: 1.39276 cumulative IPC: 1.40444 (Simulation time: 1 hr 9 min 19 sec) 
Heartbeat CPU 0 instructions: 780000003 cycles: 555044875 heartbeat IPC: 1.38018 cumulative IPC: 1.40412 (Simulation time: 1 hr 10 min 13 sec) 
Heartbeat CPU 0 instructions: 790000001 cycles: 562173533 heartbeat IPC: 1.40279 cumulative IPC: 1.40411 (Simulation time: 1 hr 11 min 5 sec) 
Heartbeat CPU 0 instructions: 800000002 cycles: 569219366 heartbeat IPC: 1.41928 cumulative IPC: 1.40429 (Simulation time: 1 hr 11 min 58 sec) 
Heartbeat CPU 0 instructions: 810000000 cycles: 576213235 heartbeat IPC: 1.42982 cumulative IPC: 1.4046 (Simulation time: 1 hr 12 min 51 sec) 
Heartbeat CPU 0 instructions: 820000000 cycles: 583033021 heartbeat IPC: 1.46632 cumulative IPC: 1.40533 (Simulation time: 1 hr 13 min 43 sec) 
Heartbeat CPU 0 instructions: 830000000 cycles: 590131572 heartbeat IPC: 1.40874 cumulative IPC: 1.40537 (Simulation time: 1 hr 14 min 36 sec) 
Heartbeat CPU 0 instructions: 840000003 cycles: 597062309 heartbeat IPC: 1.44285 cumulative IPC: 1.4058 (Simulation time: 1 hr 15 min 27 sec) 
Heartbeat CPU 0 instructions: 850000000 cycles: 604213792 heartbeat IPC: 1.39831 cumulative IPC: 1.40571 (Simulation time: 1 hr 16 min 19 sec) 
Heartbeat CPU 0 instructions: 860000000 cycles: 611249403 heartbeat IPC: 1.42134 cumulative IPC: 1.40589 (Simulation time: 1 hr 17 min 10 sec) 
Heartbeat CPU 0 instructions: 870000001 cycles: 618084670 heartbeat IPC: 1.463 cumulative IPC: 1.40653 (Simulation time: 1 hr 17 min 59 sec) 
Heartbeat CPU 0 instructions: 880000003 cycles: 625162684 heartbeat IPC: 1.41283 cumulative IPC: 1.4066 (Simulation time: 1 hr 18 min 49 sec) 
Heartbeat CPU 0 instructions: 890000002 cycles: 632272088 heartbeat IPC: 1.40659 cumulative IPC: 1.4066 (Simulation time: 1 hr 19 min 40 sec) 
Heartbeat CPU 0 instructions: 900000000 cycles: 639350875 heartbeat IPC: 1.41267 cumulative IPC: 1.40666 (Simulation time: 1 hr 20 min 30 sec) 
Heartbeat CPU 0 instructions: 910000001 cycles: 646397447 heartbeat IPC: 1.41913 cumulative IPC: 1.4068 (Simulation time: 1 hr 21 min 18 sec) 
Heartbeat CPU 0 instructions: 920000004 cycles: 653373556 heartbeat IPC: 1.43346 cumulative IPC: 1.40709 (Simulation time: 1 hr 22 min 6 sec) 
Heartbeat CPU 0 instructions: 930000002 cycles: 660294464 heartbeat IPC: 1.4449 cumulative IPC: 1.40748 (Simulation time: 1 hr 22 min 57 sec) 
Heartbeat CPU 0 instructions: 940000002 cycles: 667096465 heartbeat IPC: 1.47016 cumulative IPC: 1.40812 (Simulation time: 1 hr 23 min 45 sec) 
Heartbeat CPU 0 instructions: 950000000 cycles: 673920946 heartbeat IPC: 1.46531 cumulative IPC: 1.4087 (Simulation time: 1 hr 24 min 35 sec) 
Heartbeat CPU 0 instructions: 960000001 cycles: 680845644 heartbeat IPC: 1.44411 cumulative IPC: 1.40906 (Simulation time: 1 hr 25 min 24 sec) 
Heartbeat CPU 0 instructions: 970000002 cycles: 687699550 heartbeat IPC: 1.45902 cumulative IPC: 1.40956 (Simulation time: 1 hr 26 min 13 sec) 
Heartbeat CPU 0 instructions: 980000001 cycles: 694700951 heartbeat IPC: 1.42829 cumulative IPC: 1.40975 (Simulation time: 1 hr 27 min 1 sec) 
Heartbeat CPU 0 instructions: 990000003 cycles: 701649356 heartbeat IPC: 1.43918 cumulative IPC: 1.41004 (Simulation time: 1 hr 27 min 50 sec) 
Heartbeat CPU 0 instructions: 1000000003 cycles: 708999610 heartbeat IPC: 1.3605 cumulative IPC: 1.40953 (Simulation time: 1 hr 28 min 38 sec) 
Finished CPU 0 instructions: 1000000003 cycles: 709448556 cumulative IPC: 1.40955 (Simulation time: 1 hr 28 min 43 sec) 

ChampSim completed all CPUs

Region of Interest Statistics

CPU 0 cumulative IPC: 1.40955 instructions: 1000000003 cycles: 709448556
cpu0_DTLB TOTAL     ACCESS:  182917779  HIT:  182656025  MISS:     261754
cpu0_DTLB LOAD      ACCESS:  127485181  HIT:  127234229  MISS:     250952
cpu0_DTLB RFO       ACCESS:   55432598  HIT:   55421796  MISS:      10802
cpu0_DTLB PREFETCH  ACCESS:          0  HIT:          0  MISS:          0
cpu0_DTLB WRITEBACK ACCESS:          0  HIT:          0  MISS:          0
cpu0_DTLB TRANSLATION ACCESS:          0  HIT:          0  MISS:          0
cpu0_DTLB PREFETCH  REQUESTED:          0  ISSUED:          0  USEFUL:          0  USELESS:          0
cpu0_DTLB AVERAGE MISS LATENCY: 136.833 cycles
cpu0_ITLB TOTAL     ACCESS:   71262662  HIT:   71262660  MISS:          2
cpu0_ITLB LOAD      ACCESS:   71262662  HIT:   71262660  MISS:          2
cpu0_ITLB RFO       ACCESS:          0  HIT:          0  MISS:          0
cpu0_ITLB PREFETCH  ACCESS:          0  HIT:          0  MISS:          0
cpu0_ITLB WRITEBACK ACCESS:          0  HIT:          0  MISS:          0
cpu0_ITLB TRANSLATION ACCESS:          0  HIT:          0  MISS:          0
cpu0_ITLB PREFETCH  REQUESTED:          0  ISSUED:          0  USEFUL:          0  USELESS:          0
cpu0_ITLB AVERAGE MISS LATENCY: 222.5 cycles
cpu0_L1I TOTAL     ACCESS:  105228105  HIT:  104602606  MISS:     625499
cpu0_L1I LOAD      ACCESS:  105228105  HIT:  104602606  MISS:     625499
cpu0_L1I RFO       ACCESS:          0  HIT:          0  MISS:          0
cpu0_L1I PREFETCH  ACCESS:          0  HIT:          0  MISS:          0
cpu0_L1I WRITEBACK ACCESS:          0  HIT:          0  MISS:          0
cpu0_L1I TRANSLATION ACCESS:          0  HIT:          0  MISS:          0
cpu0_L1I PREFETCH  REQUESTED:          0  ISSUED:          0  USEFUL:          0  USELESS:          0
cpu0_L1I AVERAGE MISS LATENCY: 13.95 cycles
cpu0_STLB TOTAL     ACCESS:     261756  HIT:      90417  MISS:     171339
cpu0_STLB LOAD      ACCESS:     250954  HIT:      79847  MISS:     171107
cpu0_STLB RFO       ACCESS:      10802  HIT:      10570  MISS:        232
cpu0_STLB PREFETCH  ACCESS:          0  HIT:          0  MISS:          0
cpu0_STLB WRITEBACK ACCESS:          0  HIT:          0  MISS:          0
cpu0_STLB TRANSLATION ACCESS:          0  HIT:          0  MISS:          0
cpu0_STLB PREFETCH  REQUESTED:          0  ISSUED:          0  USEFUL:          0  USELESS:          0
cpu0_STLB AVERAGE MISS LATENCY: 195.29 cycles
cpu0_L1D TOTAL     ACCESS:  421284566  HIT:  418224795  MISS:    3059771
cpu0_L1D LOAD      ACCESS:  153616725  HIT:  152551323  MISS:    1065402
cpu0_L1D RFO       ACCESS:  115333657  HIT:  114745941  MISS:     587716
cpu0_L1D PREFETCH  ACCESS:  152164036  HIT:  150920311  MISS:    1243725
cpu0_L1D WRITEBACK ACCESS:          0  HIT:          0  MISS:          0
cpu0_L1D TRANSLATION ACCESS:     170148  HIT:       7220  MISS:     162928
cpu0_L1D PREFETCH  REQUESTED:  153727152  ISSUED:  152547507  USEFUL:    1094141  USELESS:     183800
cpu0_L1D AVERAGE MISS LATENCY: 59.7695 cycles
cpu0_L2C TOTAL     ACCESS:    4723009  HIT:    4180421  MISS:     542588
cpu0_L2C LOAD      ACCESS:    1662455  HIT:    1381039  MISS:     281416
cpu0_L2C RFO       ACCESS:     581670  HIT:     561650  MISS:      20020
cpu0_L2C PREFETCH  ACCESS:    1336364  HIT:    1120619  MISS:     215745
cpu0_L2C WRITEBACK ACCESS:     979592  HIT:     978765  MISS:        827
cpu0_L2C TRANSLATION ACCESS:     162928  HIT:     138348  MISS:      24580
cpu0_L2C PREFETCH  REQUESTED:      59141  ISSUED:      59029  USEFUL:       4078  USELESS:       5213
cpu0_L2C AVERAGE MISS LATENCY: 268.856 cycles
LLC TOTAL     ACCESS:     757566  HIT:     328610  MISS:     428956
LLC LOAD      ACCESS:     281416  HIT:      36174  MISS:     245242
LLC RFO       ACCESS:      20020  HIT:      17581  MISS:       2439
LLC PREFETCH  ACCESS:     215745  HIT:      36814  MISS:     178931
LLC WRITEBACK ACCESS:     215805  HIT:     214088  MISS:       1717
LLC TRANSLATION ACCESS:      24580  HIT:      23953  MISS:        627
LLC PREFETCH  REQUESTED:          0  ISSUED:          0  USEFUL:          0  USELESS:          0
LLC AVERAGE MISS LATENCY: 305.976 cycles

DRAM Statistics
 CHANNEL 0
 RQ ROW_BUFFER_HIT:        533  ROW_BUFFER_MISS:     426706
 DBUS AVG_CONGESTED_CYCLE:    3.77955
 WQ ROW_BUFFER_HIT:      18129  ROW_BUFFER_MISS:     153279  FULL:          0


CPU 0 Branch Prediction Accuracy: 93.4819% MPKI: 9.64201 Average ROB Occupancy at Mispredict: 41.9157
Branch type MPKI
BRANCH_DIRECT_JUMP: 8.5e-05
BRANCH_INDIRECT: 0.001932
BRANCH_CONDITIONAL: 9.63988
BRANCH_DIRECT_CALL: 5.9e-05
BRANCH_INDIRECT_CALL: 0
BRANCH_RETURN: 5.7e-05

