
*** ChampSim Multicore Out-of-Order Simulator ***

Warmup Instructions: 1000000
Simulation Instructions: 1000000000
Number of CPUs: 1
Off-chip DRAM Size: 4 GiB Channels: 1 Width: 64-bit Data Rate: 3200 MT/s

VirtualMemory physical capacity: 8588881920 num_ppages: 2096895
VirtualMemory page size: 4096 log2_page_size: 12

CPU 0 runs tracer/pin/traces/spec2k6/444.namd-23B.champsimtrace.xz
Basic BTB sets: 1024 ways: 8 indirect buffer size: 4096 RAS size: 64
cpu0_L1D next line prefetcher
cpu0_L2C IP-based stride prefetcher
WARNING: The extended signature CACHE::prefetch_line(ip, base_addr, pf_addr, fill_this_level, prefetch_metadata) is deprecated.
WARNING: Use CACHE::prefetch_line(pf_addr, fill_this_level, prefetch_metadata) instead.

Warmup complete CPU 0 instructions: 1000003 cycles: 306288 (Simulation time: 0 hr 0 min 3 sec) 

Heartbeat CPU 0 instructions: 10000000 cycles: 4611337 heartbeat IPC: 2.16857 cumulative IPC: 2.09057 (Simulation time: 0 hr 0 min 56 sec) 
Heartbeat CPU 0 instructions: 20000002 cycles: 8987336 heartbeat IPC: 2.28519 cumulative IPC: 2.18868 (Simulation time: 0 hr 1 min 41 sec) 
Heartbeat CPU 0 instructions: 30000001 cycles: 13358455 heartbeat IPC: 2.28774 cumulative IPC: 2.22185 (Simulation time: 0 hr 2 min 34 sec) 
Heartbeat CPU 0 instructions: 40000003 cycles: 17848132 heartbeat IPC: 2.22733 cumulative IPC: 2.22326 (Simulation time: 0 hr 3 min 32 sec) 
Heartbeat CPU 0 instructions: 50000001 cycles: 22268050 heartbeat IPC: 2.26249 cumulative IPC: 2.23115 (Simulation time: 0 hr 4 min 24 sec) 
Heartbeat CPU 0 instructions: 60000001 cycles: 26858971 heartbeat IPC: 2.17821 cumulative IPC: 2.222 (Simulation time: 0 hr 5 min 27 sec) 
Heartbeat CPU 0 instructions: 70000004 cycles: 31367752 heartbeat IPC: 2.2179 cumulative IPC: 2.2214 (Simulation time: 0 hr 6 min 21 sec) 
Heartbeat CPU 0 instructions: 80000000 cycles: 35766468 heartbeat IPC: 2.27339 cumulative IPC: 2.22785 (Simulation time: 0 hr 7 min 22 sec) 
Heartbeat CPU 0 instructions: 90000002 cycles: 39825531 heartbeat IPC: 2.46362 cumulative IPC: 2.25207 (Simulation time: 0 hr 8 min 14 sec) 
Heartbeat CPU 0 instructions: 100000001 cycles: 44340833 heartbeat IPC: 2.21469 cumulative IPC: 2.24823 (Simulation time: 0 hr 9 min 12 sec) 
Heartbeat CPU 0 instructions: 110000004 cycles: 48604942 heartbeat IPC: 2.34516 cumulative IPC: 2.25679 (Simulation time: 0 hr 10 min 9 sec) 
Heartbeat CPU 0 instructions: 120000002 cycles: 52927405 heartbeat IPC: 2.3135 cumulative IPC: 2.26145 (Simulation time: 0 hr 11 min 3 sec) 
Heartbeat CPU 0 instructions: 130000004 cycles: 57528786 heartbeat IPC: 2.17326 cumulative IPC: 2.25436 (Simulation time: 0 hr 12 min 0 sec) 
Heartbeat CPU 0 instructions: 140000001 cycles: 61687782 heartbeat IPC: 2.40443 cumulative IPC: 2.26453 (Simulation time: 0 hr 12 min 53 sec) 
Heartbeat CPU 0 instructions: 150000000 cycles: 66300702 heartbeat IPC: 2.16782 cumulative IPC: 2.25777 (Simulation time: 0 hr 13 min 50 sec) 
Heartbeat CPU 0 instructions: 160000003 cycles: 70560251 heartbeat IPC: 2.34767 cumulative IPC: 2.26322 (Simulation time: 0 hr 14 min 39 sec) 
Heartbeat CPU 0 instructions: 170000001 cycles: 75260354 heartbeat IPC: 2.12761 cumulative IPC: 2.25471 (Simulation time: 0 hr 15 min 34 sec) 
Heartbeat CPU 0 instructions: 180000000 cycles: 79936339 heartbeat IPC: 2.13859 cumulative IPC: 2.2479 (Simulation time: 0 hr 16 min 31 sec) 
Heartbeat CPU 0 instructions: 190000003 cycles: 84240533 heartbeat IPC: 2.32332 cumulative IPC: 2.25176 (Simulation time: 0 hr 17 min 23 sec) 
Heartbeat CPU 0 instructions: 200000003 cycles: 88875047 heartbeat IPC: 2.15772 cumulative IPC: 2.24684 (Simulation time: 0 hr 18 min 21 sec) 
Heartbeat CPU 0 instructions: 210000001 cycles: 93302738 heartbeat IPC: 2.25851 cumulative IPC: 2.2474 (Simulation time: 0 hr 19 min 16 sec) 
Heartbeat CPU 0 instructions: 220000002 cycles: 97921349 heartbeat IPC: 2.16515 cumulative IPC: 2.24351 (Simulation time: 0 hr 20 min 14 sec) 
Heartbeat CPU 0 instructions: 230000001 cycles: 102108362 heartbeat IPC: 2.38834 cumulative IPC: 2.24946 (Simulation time: 0 hr 21 min 8 sec) 
Heartbeat CPU 0 instructions: 240000003 cycles: 106704860 heartbeat IPC: 2.17557 cumulative IPC: 2.24627 (Simulation time: 0 hr 22 min 8 sec) 
Heartbeat CPU 0 instructions: 250000001 cycles: 111007569 heartbeat IPC: 2.32412 cumulative IPC: 2.2493 (Simulation time: 0 hr 23 min 2 sec) 
Heartbeat CPU 0 instructions: 260000001 cycles: 115624049 heartbeat IPC: 2.16615 cumulative IPC: 2.24597 (Simulation time: 0 hr 23 min 58 sec) 
Heartbeat CPU 0 instructions: 270000001 cycles: 119682357 heartbeat IPC: 2.46408 cumulative IPC: 2.25338 (Simulation time: 0 hr 24 min 47 sec) 
Heartbeat CPU 0 instructions: 280000001 cycles: 124261798 heartbeat IPC: 2.18367 cumulative IPC: 2.25081 (Simulation time: 0 hr 25 min 46 sec) 
Heartbeat CPU 0 instructions: 290000003 cycles: 128414221 heartbeat IPC: 2.40823 cumulative IPC: 2.25591 (Simulation time: 0 hr 26 min 37 sec) 
Heartbeat CPU 0 instructions: 300000004 cycles: 133021933 heartbeat IPC: 2.17027 cumulative IPC: 2.25294 (Simulation time: 0 hr 27 min 37 sec) 
Heartbeat CPU 0 instructions: 310000003 cycles: 137070943 heartbeat IPC: 2.46974 cumulative IPC: 2.25936 (Simulation time: 0 hr 28 min 30 sec) 
Heartbeat CPU 0 instructions: 320000004 cycles: 141595360 heartbeat IPC: 2.21023 cumulative IPC: 2.25778 (Simulation time: 0 hr 29 min 29 sec) 
Heartbeat CPU 0 instructions: 330000002 cycles: 145880080 heartbeat IPC: 2.33387 cumulative IPC: 2.26002 (Simulation time: 0 hr 30 min 26 sec) 
Heartbeat CPU 0 instructions: 340000000 cycles: 150417856 heartbeat IPC: 2.20372 cumulative IPC: 2.25832 (Simulation time: 0 hr 31 min 23 sec) 
Heartbeat CPU 0 instructions: 350000000 cycles: 154722831 heartbeat IPC: 2.32289 cumulative IPC: 2.26012 (Simulation time: 0 hr 32 min 16 sec) 
Heartbeat CPU 0 instructions: 360000003 cycles: 159097061 heartbeat IPC: 2.28612 cumulative IPC: 2.26084 (Simulation time: 0 hr 33 min 10 sec) 
Heartbeat CPU 0 instructions: 370000001 cycles: 163199822 heartbeat IPC: 2.43738 cumulative IPC: 2.26528 (Simulation time: 0 hr 34 min 2 sec) 
Heartbeat CPU 0 instructions: 380000004 cycles: 167717569 heartbeat IPC: 2.21349 cumulative IPC: 2.26389 (Simulation time: 0 hr 34 min 58 sec) 
Heartbeat CPU 0 instructions: 390000000 cycles: 172052734 heartbeat IPC: 2.30672 cumulative IPC: 2.26497 (Simulation time: 0 hr 35 min 55 sec) 
Heartbeat CPU 0 instructions: 400000002 cycles: 176600086 heartbeat IPC: 2.19908 cumulative IPC: 2.26327 (Simulation time: 0 hr 36 min 48 sec) 
Heartbeat CPU 0 instructions: 410000001 cycles: 181254007 heartbeat IPC: 2.14873 cumulative IPC: 2.26032 (Simulation time: 0 hr 37 min 35 sec) 
Heartbeat CPU 0 instructions: 420000000 cycles: 185923556 heartbeat IPC: 2.14153 cumulative IPC: 2.25733 (Simulation time: 0 hr 38 min 26 sec) 
Heartbeat CPU 0 instructions: 430000001 cycles: 190625152 heartbeat IPC: 2.12694 cumulative IPC: 2.25411 (Simulation time: 0 hr 39 min 17 sec) 
Heartbeat CPU 0 instructions: 440000000 cycles: 195294899 heartbeat IPC: 2.14144 cumulative IPC: 2.25141 (Simulation time: 0 hr 40 min 6 sec) 
Heartbeat CPU 0 instructions: 450000001 cycles: 199851464 heartbeat IPC: 2.19464 cumulative IPC: 2.25012 (Simulation time: 0 hr 40 min 53 sec) 
Heartbeat CPU 0 instructions: 460000000 cycles: 204451676 heartbeat IPC: 2.17381 cumulative IPC: 2.2484 (Simulation time: 0 hr 41 min 42 sec) 
Heartbeat CPU 0 instructions: 470000001 cycles: 209062625 heartbeat IPC: 2.16875 cumulative IPC: 2.24664 (Simulation time: 0 hr 42 min 29 sec) 
Heartbeat CPU 0 instructions: 480000004 cycles: 213602752 heartbeat IPC: 2.20258 cumulative IPC: 2.2457 (Simulation time: 0 hr 43 min 15 sec) 
Heartbeat CPU 0 instructions: 490000003 cycles: 218172364 heartbeat IPC: 2.18837 cumulative IPC: 2.2445 (Simulation time: 0 hr 44 min 3 sec) 
Heartbeat CPU 0 instructions: 500000002 cycles: 222675775 heartbeat IPC: 2.22054 cumulative IPC: 2.24401 (Simulation time: 0 hr 44 min 50 sec) 
Heartbeat CPU 0 instructions: 510000001 cycles: 227299898 heartbeat IPC: 2.16257 cumulative IPC: 2.24235 (Simulation time: 0 hr 45 min 42 sec) 
Heartbeat CPU 0 instructions: 520000000 cycles: 231871255 heartbeat IPC: 2.18753 cumulative IPC: 2.24127 (Simulation time: 0 hr 46 min 32 sec) 
Heartbeat CPU 0 instructions: 530000003 cycles: 236406758 heartbeat IPC: 2.20483 cumulative IPC: 2.24057 (Simulation time: 0 hr 47 min 21 sec) 
Heartbeat CPU 0 instructions: 540000000 cycles: 240935063 heartbeat IPC: 2.20833 cumulative IPC: 2.23996 (Simulation time: 0 hr 48 min 10 sec) 
Heartbeat CPU 0 instructions: 550000000 cycles: 245500765 heartbeat IPC: 2.19024 cumulative IPC: 2.23904 (Simulation time: 0 hr 48 min 59 sec) 
Heartbeat CPU 0 instructions: 560000002 cycles: 250106694 heartbeat IPC: 2.17112 cumulative IPC: 2.23779 (Simulation time: 0 hr 49 min 48 sec) 
Heartbeat CPU 0 instructions: 570000004 cycles: 254707336 heartbeat IPC: 2.17361 cumulative IPC: 2.23663 (Simulation time: 0 hr 50 min 37 sec) 
Heartbeat CPU 0 instructions: 580000001 cycles: 259243434 heartbeat IPC: 2.20454 cumulative IPC: 2.23606 (Simulation time: 0 hr 51 min 24 sec) 
Heartbeat CPU 0 instructions: 590000003 cycles: 263765617 heartbeat IPC: 2.21132 cumulative IPC: 2.23564 (Simulation time: 0 hr 52 min 12 sec) 
Heartbeat CPU 0 instructions: 600000004 cycles: 268382523 heartbeat IPC: 2.16595 cumulative IPC: 2.23444 (Simulation time: 0 hr 53 min 1 sec) 
Heartbeat CPU 0 instructions: 610000002 cycles: 273034652 heartbeat IPC: 2.14955 cumulative IPC: 2.23299 (Simulation time: 0 hr 53 min 50 sec) 
Heartbeat CPU 0 instructions: 620000004 cycles: 277602789 heartbeat IPC: 2.18908 cumulative IPC: 2.23227 (Simulation time: 0 hr 54 min 35 sec) 
Heartbeat CPU 0 instructions: 630000002 cycles: 282172255 heartbeat IPC: 2.18844 cumulative IPC: 2.23156 (Simulation time: 0 hr 55 min 23 sec) 
Heartbeat CPU 0 instructions: 640000004 cycles: 286719994 heartbeat IPC: 2.1989 cumulative IPC: 2.23104 (Simulation time: 0 hr 56 min 11 sec) 
Heartbeat CPU 0 instructions: 650000002 cycles: 291298709 heartbeat IPC: 2.18402 cumulative IPC: 2.2303 (Simulation time: 0 hr 56 min 57 sec) 
Heartbeat CPU 0 instructions: 660000000 cycles: 295814117 heartbeat IPC: 2.21464 cumulative IPC: 2.23006 (Simulation time: 0 hr 57 min 44 sec) 
Heartbeat CPU 0 instructions: 670000000 cycles: 300442288 heartbeat IPC: 2.16068 cumulative IPC: 2.22899 (Simulation time: 0 hr 58 min 31 sec) 
Heartbeat CPU 0 instructions: 680000002 cycles: 305139790 heartbeat IPC: 2.12879 cumulative IPC: 2.22745 (Simulation time: 0 hr 59 min 18 sec) 
Heartbeat CPU 0 instructions: 690000001 cycles: 309796767 heartbeat IPC: 2.14732 cumulative IPC: 2.22624 (Simulation time: 1 hr 0 min 6 sec) 
Heartbeat CPU 0 instructions: 700000001 cycles: 314382947 heartbeat IPC: 2.18046 cumulative IPC: 2.22557 (Simulation time: 1 hr 0 min 53 sec) 
Heartbeat CPU 0 instructions: 710000004 cycles: 319003449 heartbeat IPC: 2.16427 cumulative IPC: 2.22468 (Simulation time: 1 hr 1 min 38 sec) 
Heartbeat CPU 0 instructions: 720000002 cycles: 323519567 heartbeat IPC: 2.21429 cumulative IPC: 2.22454 (Simulation time: 1 hr 2 min 22 sec) 
Heartbeat CPU 0 instructions: 730000000 cycles: 328133071 heartbeat IPC: 2.16755 cumulative IPC: 2.22374 (Simulation time: 1 hr 3 min 6 sec) 
Heartbeat CPU 0 instructions: 740000000 cycles: 332672570 heartbeat IPC: 2.20289 cumulative IPC: 2.22345 (Simulation time: 1 hr 3 min 49 sec) 
Heartbeat CPU 0 instructions: 750000004 cycles: 337207556 heartbeat IPC: 2.20508 cumulative IPC: 2.2232 (Simulation time: 1 hr 4 min 33 sec) 
Heartbeat CPU 0 instructions: 760000001 cycles: 341723669 heartbeat IPC: 2.21429 cumulative IPC: 2.22309 (Simulation time: 1 hr 5 min 15 sec) 
Heartbeat CPU 0 instructions: 770000003 cycles: 346223536 heartbeat IPC: 2.22229 cumulative IPC: 2.22308 (Simulation time: 1 hr 5 min 57 sec) 
Heartbeat CPU 0 instructions: 780000003 cycles: 350783446 heartbeat IPC: 2.19303 cumulative IPC: 2.22268 (Simulation time: 1 hr 6 min 41 sec) 
Heartbeat CPU 0 instructions: 790000004 cycles: 355267878 heartbeat IPC: 2.22994 cumulative IPC: 2.22278 (Simulation time: 1 hr 7 min 22 sec) 
Heartbeat CPU 0 instructions: 800000000 cycles: 359821663 heartbeat IPC: 2.19597 cumulative IPC: 2.22244 (Simulation time: 1 hr 8 min 3 sec) 
Heartbeat CPU 0 instructions: 810000001 cycles: 364497526 heartbeat IPC: 2.13864 cumulative IPC: 2.22136 (Simulation time: 1 hr 8 min 45 sec) 
Heartbeat CPU 0 instructions: 820000000 cycles: 369002356 heartbeat IPC: 2.21984 cumulative IPC: 2.22134 (Simulation time: 1 hr 9 min 28 sec) 
Heartbeat CPU 0 instructions: 830000004 cycles: 373436985 heartbeat IPC: 2.25498 cumulative IPC: 2.22174 (Simulation time: 1 hr 10 min 6 sec) 
Heartbeat CPU 0 instructions: 840000004 cycles: 378048822 heartbeat IPC: 2.16833 cumulative IPC: 2.22109 (Simulation time: 1 hr 10 min 50 sec) 
Heartbeat CPU 0 instructions: 850000002 cycles: 382628930 heartbeat IPC: 2.18335 cumulative IPC: 2.22064 (Simulation time: 1 hr 11 min 31 sec) 
Heartbeat CPU 0 instructions: 860000000 cycles: 387268066 heartbeat IPC: 2.15557 cumulative IPC: 2.21986 (Simulation time: 1 hr 12 min 13 sec) 
Heartbeat CPU 0 instructions: 870000000 cycles: 391876278 heartbeat IPC: 2.17004 cumulative IPC: 2.21927 (Simulation time: 1 hr 12 min 52 sec) 
Heartbeat CPU 0 instructions: 880000001 cycles: 396444716 heartbeat IPC: 2.18893 cumulative IPC: 2.21892 (Simulation time: 1 hr 13 min 35 sec) 
Heartbeat CPU 0 instructions: 890000000 cycles: 401021745 heartbeat IPC: 2.18482 cumulative IPC: 2.21853 (Simulation time: 1 hr 14 min 15 sec) 
Heartbeat CPU 0 instructions: 900000001 cycles: 405526917 heartbeat IPC: 2.21967 cumulative IPC: 2.21854 (Simulation time: 1 hr 14 min 56 sec) 
Heartbeat CPU 0 instructions: 910000003 cycles: 410028326 heartbeat IPC: 2.22153 cumulative IPC: 2.21858 (Simulation time: 1 hr 15 min 35 sec) 
Heartbeat CPU 0 instructions: 920000000 cycles: 414570440 heartbeat IPC: 2.20162 cumulative IPC: 2.21839 (Simulation time: 1 hr 16 min 13 sec) 
Heartbeat CPU 0 instructions: 930000001 cycles: 418998851 heartbeat IPC: 2.25815 cumulative IPC: 2.21881 (Simulation time: 1 hr 16 min 53 sec) 
Heartbeat CPU 0 instructions: 940000000 cycles: 423485048 heartbeat IPC: 2.22906 cumulative IPC: 2.21892 (Simulation time: 1 hr 17 min 32 sec) 
Heartbeat CPU 0 instructions: 950000001 cycles: 428017161 heartbeat IPC: 2.20648 cumulative IPC: 2.21879 (Simulation time: 1 hr 18 min 9 sec) 
Heartbeat CPU 0 instructions: 960000000 cycles: 432449504 heartbeat IPC: 2.25614 cumulative IPC: 2.21917 (Simulation time: 1 hr 18 min 44 sec) 
Heartbeat CPU 0 instructions: 970000001 cycles: 437011940 heartbeat IPC: 2.19181 cumulative IPC: 2.21889 (Simulation time: 1 hr 19 min 21 sec) 
Heartbeat CPU 0 instructions: 980000001 cycles: 441547160 heartbeat IPC: 2.20496 cumulative IPC: 2.21874 (Simulation time: 1 hr 19 min 57 sec) 
Heartbeat CPU 0 instructions: 990000003 cycles: 446039985 heartbeat IPC: 2.22577 cumulative IPC: 2.21881 (Simulation time: 1 hr 20 min 33 sec) 
Heartbeat CPU 0 instructions: 1000000000 cycles: 450644701 heartbeat IPC: 2.17169 cumulative IPC: 2.21833 (Simulation time: 1 hr 21 min 8 sec) 
Finished CPU 0 instructions: 1000000000 cycles: 450766269 cumulative IPC: 2.21844 (Simulation time: 1 hr 21 min 12 sec) 

ChampSim completed all CPUs

Region of Interest Statistics

CPU 0 cumulative IPC: 2.21844 instructions: 1000000000 cycles: 450766269
cpu0_DTLB TOTAL     ACCESS:  207259994  HIT:  207203526  MISS:      56468
cpu0_DTLB LOAD      ACCESS:  157983533  HIT:  157928083  MISS:      55450
cpu0_DTLB RFO       ACCESS:   49276461  HIT:   49275443  MISS:       1018
cpu0_DTLB PREFETCH  ACCESS:          0  HIT:          0  MISS:          0
cpu0_DTLB WRITEBACK ACCESS:          0  HIT:          0  MISS:          0
cpu0_DTLB TRANSLATION ACCESS:          0  HIT:          0  MISS:          0
cpu0_DTLB PREFETCH  REQUESTED:          0  ISSUED:          0  USEFUL:          0  USELESS:          0
cpu0_DTLB AVERAGE MISS LATENCY: 12.9747 cycles
cpu0_ITLB TOTAL     ACCESS:   19636175  HIT:   19636173  MISS:          2
cpu0_ITLB LOAD      ACCESS:   19636175  HIT:   19636173  MISS:          2
cpu0_ITLB RFO       ACCESS:          0  HIT:          0  MISS:          0
cpu0_ITLB PREFETCH  ACCESS:          0  HIT:          0  MISS:          0
cpu0_ITLB WRITEBACK ACCESS:          0  HIT:          0  MISS:          0
cpu0_ITLB TRANSLATION ACCESS:          0  HIT:          0  MISS:          0
cpu0_ITLB PREFETCH  REQUESTED:          0  ISSUED:          0  USEFUL:          0  USELESS:          0
cpu0_ITLB AVERAGE MISS LATENCY: 222.5 cycles
cpu0_L1I TOTAL     ACCESS:      48715  HIT:      48644  MISS:         71
cpu0_L1I LOAD      ACCESS:      48715  HIT:      48644  MISS:         71
cpu0_L1I RFO       ACCESS:          0  HIT:          0  MISS:          0
cpu0_L1I PREFETCH  ACCESS:          0  HIT:          0  MISS:          0
cpu0_L1I WRITEBACK ACCESS:          0  HIT:          0  MISS:          0
cpu0_L1I TRANSLATION ACCESS:          0  HIT:          0  MISS:          0
cpu0_L1I PREFETCH  REQUESTED:          0  ISSUED:          0  USEFUL:          0  USELESS:          0
cpu0_L1I AVERAGE MISS LATENCY: 323.268 cycles
cpu0_STLB TOTAL     ACCESS:      56470  HIT:      55395  MISS:       1075
cpu0_STLB LOAD      ACCESS:      55452  HIT:      54379  MISS:       1073
cpu0_STLB RFO       ACCESS:       1018  HIT:       1016  MISS:          2
cpu0_STLB PREFETCH  ACCESS:          0  HIT:          0  MISS:          0
cpu0_STLB WRITEBACK ACCESS:          0  HIT:          0  MISS:          0
cpu0_STLB TRANSLATION ACCESS:          0  HIT:          0  MISS:          0
cpu0_STLB PREFETCH  REQUESTED:          0  ISSUED:          0  USEFUL:          0  USELESS:          0
cpu0_STLB AVERAGE MISS LATENCY: 209.177 cycles
cpu0_L1D TOTAL     ACCESS:  395214990  HIT:  383768668  MISS:   11446322
cpu0_L1D LOAD      ACCESS:  162531672  HIT:  156940263  MISS:    5591409
cpu0_L1D RFO       ACCESS:   75540928  HIT:   75275635  MISS:     265293
cpu0_L1D PREFETCH  ACCESS:  157141316  HIT:  151552150  MISS:    5589166
cpu0_L1D WRITEBACK ACCESS:          0  HIT:          0  MISS:          0
cpu0_L1D TRANSLATION ACCESS:       1074  HIT:        620  MISS:        454
cpu0_L1D PREFETCH  REQUESTED:  165169071  ISSUED:  163229473  USEFUL:    5302858  USELESS:    1079180
cpu0_L1D AVERAGE MISS LATENCY: 13.8283 cycles
cpu0_L2C TOTAL     ACCESS:   15311662  HIT:   15063306  MISS:     248356
cpu0_L2C LOAD      ACCESS:    4798262  HIT:    4722875  MISS:      75387
cpu0_L2C RFO       ACCESS:     262544  HIT:     261902  MISS:        642
cpu0_L2C PREFETCH  ACCESS:    7854025  HIT:    7682022  MISS:     172003
cpu0_L2C WRITEBACK ACCESS:    2396377  HIT:    2396125  MISS:        252
cpu0_L2C TRANSLATION ACCESS:        454  HIT:        382  MISS:         72
cpu0_L2C PREFETCH  REQUESTED:    1727543  ISSUED:    1474287  USEFUL:      21959  USELESS:      10319
cpu0_L2C AVERAGE MISS LATENCY: 115.217 cycles
LLC TOTAL     ACCESS:     311791  HIT:     239174  MISS:      72617
LLC LOAD      ACCESS:      75386  HIT:      54828  MISS:      20558
LLC RFO       ACCESS:        642  HIT:        620  MISS:         22
LLC PREFETCH  ACCESS:     172008  HIT:     120001  MISS:      52007
LLC WRITEBACK ACCESS:      63683  HIT:      63654  MISS:         29
LLC TRANSLATION ACCESS:         72  HIT:         71  MISS:          1
LLC PREFETCH  REQUESTED:          0  ISSUED:          0  USEFUL:          0  USELESS:          0
LLC AVERAGE MISS LATENCY: 301.881 cycles

DRAM Statistics
 CHANNEL 0
 RQ ROW_BUFFER_HIT:      14382  ROW_BUFFER_MISS:      58202
 DBUS AVG_CONGESTED_CYCLE:    3.71628
 WQ ROW_BUFFER_HIT:       1070  ROW_BUFFER_MISS:       9761  FULL:          0


CPU 0 Branch Prediction Accuracy: 95.6107% MPKI: 1.80642 Average ROB Occupancy at Mispredict: 69.14
Branch type MPKI
BRANCH_DIRECT_JUMP: 5e-06
BRANCH_INDIRECT: 0
BRANCH_CONDITIONAL: 1.80641
BRANCH_DIRECT_CALL: 4e-06
BRANCH_INDIRECT_CALL: 0
BRANCH_RETURN: 6e-06

