
*** ChampSim Multicore Out-of-Order Simulator ***

Warmup Instructions: 0
Simulation Instructions: 1000000000
Number of CPUs: 1
Off-chip DRAM Size: 4 GiB Channels: 1 Width: 64-bit Data Rate: 3200 MT/s

VirtualMemory physical capacity: 8588881920 num_ppages: 2096895
VirtualMemory page size: 4096 log2_page_size: 12

CPU 0 runs tracer/pin/traces/spec2k6/429.mcf-22B.champsimtrace.xz
Basic BTB sets: 1024 ways: 8 indirect buffer size: 4096 RAS size: 64
cpu0_L1D next line prefetcher
cpu0_L2C IP-based stride prefetcher

Warmup complete CPU 0 instructions: 4 cycles: 56 (Simulation time: 0 hr 0 min 0 sec) 

WARNING: The extended signature CACHE::prefetch_line(ip, base_addr, pf_addr, fill_this_level, prefetch_metadata) is deprecated.
WARNING: Use CACHE::prefetch_line(pf_addr, fill_this_level, prefetch_metadata) instead.
Heartbeat CPU 0 instructions: 10000002 cycles: 37474824 heartbeat IPC: 0.266846 cumulative IPC: 0.266846 (Simulation time: 0 hr 1 min 51 sec) 
Heartbeat CPU 0 instructions: 20000002 cycles: 109674618 heartbeat IPC: 0.138505 cumulative IPC: 0.182358 (Simulation time: 0 hr 4 min 48 sec) 
Heartbeat CPU 0 instructions: 30000003 cycles: 146390163 heartbeat IPC: 0.272364 cumulative IPC: 0.204932 (Simulation time: 0 hr 6 min 35 sec) 
Heartbeat CPU 0 instructions: 40000001 cycles: 185589312 heartbeat IPC: 0.255108 cumulative IPC: 0.21553 (Simulation time: 0 hr 8 min 30 sec) 
Heartbeat CPU 0 instructions: 50000000 cycles: 246264128 heartbeat IPC: 0.164813 cumulative IPC: 0.203034 (Simulation time: 0 hr 11 min 26 sec) 
Heartbeat CPU 0 instructions: 60000000 cycles: 306609613 heartbeat IPC: 0.165712 cumulative IPC: 0.195689 (Simulation time: 0 hr 13 min 59 sec) 
Heartbeat CPU 0 instructions: 70000003 cycles: 356662377 heartbeat IPC: 0.199789 cumulative IPC: 0.196264 (Simulation time: 0 hr 16 min 20 sec) 
Heartbeat CPU 0 instructions: 80000002 cycles: 423838450 heartbeat IPC: 0.148863 cumulative IPC: 0.188751 (Simulation time: 0 hr 19 min 1 sec) 
Heartbeat CPU 0 instructions: 90000002 cycles: 484339558 heartbeat IPC: 0.165286 cumulative IPC: 0.18582 (Simulation time: 0 hr 21 min 34 sec) 
Heartbeat CPU 0 instructions: 100000003 cycles: 530846284 heartbeat IPC: 0.215023 cumulative IPC: 0.188378 (Simulation time: 0 hr 23 min 32 sec) 
Heartbeat CPU 0 instructions: 110000003 cycles: 591715834 heartbeat IPC: 0.164286 cumulative IPC: 0.1859 (Simulation time: 0 hr 25 min 51 sec) 
Heartbeat CPU 0 instructions: 120000001 cycles: 641149670 heartbeat IPC: 0.202291 cumulative IPC: 0.187164 (Simulation time: 0 hr 28 min 3 sec) 
Heartbeat CPU 0 instructions: 130000000 cycles: 719739390 heartbeat IPC: 0.127243 cumulative IPC: 0.180621 (Simulation time: 0 hr 31 min 9 sec) 
Heartbeat CPU 0 instructions: 140000001 cycles: 782395978 heartbeat IPC: 0.1596 cumulative IPC: 0.178938 (Simulation time: 0 hr 34 min 15 sec) 
Heartbeat CPU 0 instructions: 150000000 cycles: 844599126 heartbeat IPC: 0.160764 cumulative IPC: 0.177599 (Simulation time: 0 hr 36 min 53 sec) 
Heartbeat CPU 0 instructions: 160000000 cycles: 910055637 heartbeat IPC: 0.152773 cumulative IPC: 0.175813 (Simulation time: 0 hr 39 min 29 sec) 
Heartbeat CPU 0 instructions: 170000000 cycles: 951465535 heartbeat IPC: 0.241488 cumulative IPC: 0.178672 (Simulation time: 0 hr 41 min 31 sec) 
Heartbeat CPU 0 instructions: 180000002 cycles: 992713417 heartbeat IPC: 0.242437 cumulative IPC: 0.181321 (Simulation time: 0 hr 43 min 30 sec) 
Heartbeat CPU 0 instructions: 190000001 cycles: 1052777219 heartbeat IPC: 0.16649 cumulative IPC: 0.180475 (Simulation time: 0 hr 46 min 0 sec) 
Heartbeat CPU 0 instructions: 200000001 cycles: 1089097136 heartbeat IPC: 0.275331 cumulative IPC: 0.183638 (Simulation time: 0 hr 47 min 47 sec) 
Heartbeat CPU 0 instructions: 210000004 cycles: 1138787323 heartbeat IPC: 0.201247 cumulative IPC: 0.184407 (Simulation time: 0 hr 49 min 56 sec) 
Heartbeat CPU 0 instructions: 220000003 cycles: 1206307943 heartbeat IPC: 0.148103 cumulative IPC: 0.182375 (Simulation time: 0 hr 53 min 11 sec) 
Heartbeat CPU 0 instructions: 230000001 cycles: 1284919996 heartbeat IPC: 0.127207 cumulative IPC: 0.178999 (Simulation time: 0 hr 56 min 3 sec) 
Heartbeat CPU 0 instructions: 240000004 cycles: 1363067063 heartbeat IPC: 0.127964 cumulative IPC: 0.176074 (Simulation time: 0 hr 59 min 4 sec) 
Heartbeat CPU 0 instructions: 250000000 cycles: 1431486164 heartbeat IPC: 0.146158 cumulative IPC: 0.174644 (Simulation time: 1 hr 1 min 34 sec) 
Heartbeat CPU 0 instructions: 260000002 cycles: 1479529398 heartbeat IPC: 0.208146 cumulative IPC: 0.175732 (Simulation time: 1 hr 3 min 41 sec) 
Heartbeat CPU 0 instructions: 270000002 cycles: 1520235090 heartbeat IPC: 0.245666 cumulative IPC: 0.177604 (Simulation time: 1 hr 5 min 45 sec) 
Heartbeat CPU 0 instructions: 280000000 cycles: 1564616167 heartbeat IPC: 0.225321 cumulative IPC: 0.178958 (Simulation time: 1 hr 7 min 43 sec) 
Heartbeat CPU 0 instructions: 290000000 cycles: 1620433365 heartbeat IPC: 0.179156 cumulative IPC: 0.178964 (Simulation time: 1 hr 10 min 8 sec) 
Heartbeat CPU 0 instructions: 300000001 cycles: 1685952908 heartbeat IPC: 0.152626 cumulative IPC: 0.177941 (Simulation time: 1 hr 13 min 7 sec) 
Heartbeat CPU 0 instructions: 310000000 cycles: 1752428819 heartbeat IPC: 0.15043 cumulative IPC: 0.176897 (Simulation time: 1 hr 16 min 9 sec) 
Heartbeat CPU 0 instructions: 320000002 cycles: 1827671807 heartbeat IPC: 0.132903 cumulative IPC: 0.175086 (Simulation time: 1 hr 18 min 50 sec) 
Heartbeat CPU 0 instructions: 330000002 cycles: 1865603171 heartbeat IPC: 0.263634 cumulative IPC: 0.176886 (Simulation time: 1 hr 20 min 42 sec) 
Heartbeat CPU 0 instructions: 340000003 cycles: 1922021196 heartbeat IPC: 0.177248 cumulative IPC: 0.176897 (Simulation time: 1 hr 22 min 58 sec) 
Heartbeat CPU 0 instructions: 350000000 cycles: 1992591500 heartbeat IPC: 0.141703 cumulative IPC: 0.175651 (Simulation time: 1 hr 25 min 40 sec) 
Heartbeat CPU 0 instructions: 360000000 cycles: 2044589979 heartbeat IPC: 0.192313 cumulative IPC: 0.176074 (Simulation time: 1 hr 27 min 53 sec) 
Heartbeat CPU 0 instructions: 370000004 cycles: 2129678261 heartbeat IPC: 0.117525 cumulative IPC: 0.173735 (Simulation time: 1 hr 31 min 1 sec) 
Heartbeat CPU 0 instructions: 380000004 cycles: 2173778988 heartbeat IPC: 0.226754 cumulative IPC: 0.174811 (Simulation time: 1 hr 33 min 8 sec) 
Heartbeat CPU 0 instructions: 390000001 cycles: 2255920634 heartbeat IPC: 0.121741 cumulative IPC: 0.172878 (Simulation time: 1 hr 36 min 40 sec) 
Heartbeat CPU 0 instructions: 400000002 cycles: 2326754709 heartbeat IPC: 0.141175 cumulative IPC: 0.171913 (Simulation time: 1 hr 39 min 35 sec) 
Heartbeat CPU 0 instructions: 410000000 cycles: 2373449540 heartbeat IPC: 0.214156 cumulative IPC: 0.172744 (Simulation time: 1 hr 41 min 43 sec) 
Heartbeat CPU 0 instructions: 420000000 cycles: 2429139640 heartbeat IPC: 0.179565 cumulative IPC: 0.172901 (Simulation time: 1 hr 44 min 1 sec) 
Heartbeat CPU 0 instructions: 430000001 cycles: 2477413709 heartbeat IPC: 0.207151 cumulative IPC: 0.173568 (Simulation time: 1 hr 46 min 11 sec) 
Heartbeat CPU 0 instructions: 440000000 cycles: 2516019934 heartbeat IPC: 0.259026 cumulative IPC: 0.174879 (Simulation time: 1 hr 48 min 3 sec) 
Heartbeat CPU 0 instructions: 450000003 cycles: 2558923646 heartbeat IPC: 0.23308 cumulative IPC: 0.175855 (Simulation time: 1 hr 50 min 5 sec) 
Heartbeat CPU 0 instructions: 460000004 cycles: 2622350815 heartbeat IPC: 0.157661 cumulative IPC: 0.175415 (Simulation time: 1 hr 52 min 27 sec) 
Heartbeat CPU 0 instructions: 470000001 cycles: 2674246252 heartbeat IPC: 0.192695 cumulative IPC: 0.17575 (Simulation time: 1 hr 54 min 48 sec) 
Heartbeat CPU 0 instructions: 480000000 cycles: 2742407890 heartbeat IPC: 0.14671 cumulative IPC: 0.175029 (Simulation time: 1 hr 58 min 21 sec) 
Heartbeat CPU 0 instructions: 490000001 cycles: 2786850657 heartbeat IPC: 0.225009 cumulative IPC: 0.175826 (Simulation time: 2 hr 0 min 44 sec) 
Heartbeat CPU 0 instructions: 500000000 cycles: 2865964505 heartbeat IPC: 0.1264 cumulative IPC: 0.174461 (Simulation time: 2 hr 3 min 59 sec) 
Heartbeat CPU 0 instructions: 510000003 cycles: 2929368303 heartbeat IPC: 0.157719 cumulative IPC: 0.174099 (Simulation time: 2 hr 6 min 56 sec) 
Heartbeat CPU 0 instructions: 520000002 cycles: 2983934794 heartbeat IPC: 0.183263 cumulative IPC: 0.174267 (Simulation time: 2 hr 9 min 22 sec) 
Heartbeat CPU 0 instructions: 530000003 cycles: 3052069960 heartbeat IPC: 0.146767 cumulative IPC: 0.173653 (Simulation time: 2 hr 12 min 18 sec) 
Heartbeat CPU 0 instructions: 540000000 cycles: 3110184836 heartbeat IPC: 0.172073 cumulative IPC: 0.173623 (Simulation time: 2 hr 14 min 57 sec) 
Heartbeat CPU 0 instructions: 550000001 cycles: 3189658031 heartbeat IPC: 0.125829 cumulative IPC: 0.172432 (Simulation time: 2 hr 18 min 39 sec) 
Heartbeat CPU 0 instructions: 560000004 cycles: 3272356541 heartbeat IPC: 0.120921 cumulative IPC: 0.17113 (Simulation time: 2 hr 22 min 11 sec) 
Heartbeat CPU 0 instructions: 570000000 cycles: 3337756952 heartbeat IPC: 0.152904 cumulative IPC: 0.170773 (Simulation time: 2 hr 25 min 5 sec) 
Heartbeat CPU 0 instructions: 580000000 cycles: 3395557225 heartbeat IPC: 0.17301 cumulative IPC: 0.170811 (Simulation time: 2 hr 27 min 30 sec) 
Heartbeat CPU 0 instructions: 590000002 cycles: 3460498035 heartbeat IPC: 0.153986 cumulative IPC: 0.170496 (Simulation time: 2 hr 31 min 8 sec) 
Heartbeat CPU 0 instructions: 600000004 cycles: 3501920921 heartbeat IPC: 0.241412 cumulative IPC: 0.171335 (Simulation time: 2 hr 33 min 43 sec) 
Heartbeat CPU 0 instructions: 610000000 cycles: 3547710455 heartbeat IPC: 0.21839 cumulative IPC: 0.171942 (Simulation time: 2 hr 36 min 11 sec) 
Heartbeat CPU 0 instructions: 620000000 cycles: 3596354220 heartbeat IPC: 0.205576 cumulative IPC: 0.172397 (Simulation time: 2 hr 38 min 48 sec) 
Heartbeat CPU 0 instructions: 630000003 cycles: 3687142685 heartbeat IPC: 0.110146 cumulative IPC: 0.170864 (Simulation time: 2 hr 43 min 24 sec) 
Heartbeat CPU 0 instructions: 640000002 cycles: 3742302679 heartbeat IPC: 0.181291 cumulative IPC: 0.171018 (Simulation time: 2 hr 46 min 52 sec) 
Heartbeat CPU 0 instructions: 650000001 cycles: 3827341381 heartbeat IPC: 0.117594 cumulative IPC: 0.169831 (Simulation time: 2 hr 50 min 36 sec) 
Heartbeat CPU 0 instructions: 660000002 cycles: 3880591637 heartbeat IPC: 0.187793 cumulative IPC: 0.170077 (Simulation time: 2 hr 53 min 32 sec) 
Heartbeat CPU 0 instructions: 670000000 cycles: 3928650076 heartbeat IPC: 0.20808 cumulative IPC: 0.170542 (Simulation time: 2 hr 56 min 20 sec) 
Heartbeat CPU 0 instructions: 680000000 cycles: 3986925948 heartbeat IPC: 0.171598 cumulative IPC: 0.170557 (Simulation time: 2 hr 59 min 45 sec) 
Heartbeat CPU 0 instructions: 690000001 cycles: 4051516773 heartbeat IPC: 0.154821 cumulative IPC: 0.170307 (Simulation time: 3 hr 3 min 16 sec) 
Heartbeat CPU 0 instructions: 700000002 cycles: 4110597834 heartbeat IPC: 0.169259 cumulative IPC: 0.170292 (Simulation time: 3 hr 6 min 13 sec) 
Heartbeat CPU 0 instructions: 710000004 cycles: 4163929443 heartbeat IPC: 0.187506 cumulative IPC: 0.170512 (Simulation time: 3 hr 9 min 49 sec) 
Heartbeat CPU 0 instructions: 720000001 cycles: 4238683616 heartbeat IPC: 0.133772 cumulative IPC: 0.169864 (Simulation time: 3 hr 14 min 37 sec) 
Heartbeat CPU 0 instructions: 730000002 cycles: 4292871499 heartbeat IPC: 0.184543 cumulative IPC: 0.170049 (Simulation time: 3 hr 17 min 45 sec) 
Heartbeat CPU 0 instructions: 740000002 cycles: 4339907904 heartbeat IPC: 0.212601 cumulative IPC: 0.170511 (Simulation time: 3 hr 20 min 41 sec) 
Heartbeat CPU 0 instructions: 750000000 cycles: 4379368516 heartbeat IPC: 0.253417 cumulative IPC: 0.171258 (Simulation time: 3 hr 23 min 1 sec) 
Heartbeat CPU 0 instructions: 760000004 cycles: 4435253606 heartbeat IPC: 0.178939 cumulative IPC: 0.171354 (Simulation time: 3 hr 26 min 4 sec) 
Heartbeat CPU 0 instructions: 770000001 cycles: 4519634290 heartbeat IPC: 0.11851 cumulative IPC: 0.170368 (Simulation time: 3 hr 30 min 8 sec) 
Heartbeat CPU 0 instructions: 780000003 cycles: 4575171915 heartbeat IPC: 0.180058 cumulative IPC: 0.170485 (Simulation time: 3 hr 34 min 0 sec) 
Heartbeat CPU 0 instructions: 790000002 cycles: 4645327485 heartbeat IPC: 0.14254 cumulative IPC: 0.170063 (Simulation time: 3 hr 38 min 15 sec) 
Heartbeat CPU 0 instructions: 800000002 cycles: 4712495553 heartbeat IPC: 0.14888 cumulative IPC: 0.169761 (Simulation time: 3 hr 41 min 49 sec) 
Heartbeat CPU 0 instructions: 810000002 cycles: 4782804729 heartbeat IPC: 0.142229 cumulative IPC: 0.169357 (Simulation time: 3 hr 45 min 25 sec) 
Heartbeat CPU 0 instructions: 820000003 cycles: 4824412480 heartbeat IPC: 0.24034 cumulative IPC: 0.169969 (Simulation time: 3 hr 48 min 11 sec) 
Heartbeat CPU 0 instructions: 830000002 cycles: 4862898626 heartbeat IPC: 0.259834 cumulative IPC: 0.17068 (Simulation time: 3 hr 50 min 28 sec) 
Heartbeat CPU 0 instructions: 840000004 cycles: 4924839762 heartbeat IPC: 0.161444 cumulative IPC: 0.170564 (Simulation time: 3 hr 53 min 34 sec) 
Heartbeat CPU 0 instructions: 850000000 cycles: 4974854527 heartbeat IPC: 0.199941 cumulative IPC: 0.170859 (Simulation time: 3 hr 56 min 23 sec) 
Heartbeat CPU 0 instructions: 860000002 cycles: 5040642722 heartbeat IPC: 0.152003 cumulative IPC: 0.170613 (Simulation time: 3 hr 59 min 25 sec) 
Heartbeat CPU 0 instructions: 870000000 cycles: 5089612897 heartbeat IPC: 0.204206 cumulative IPC: 0.170936 (Simulation time: 4 hr 1 min 48 sec) 
Heartbeat CPU 0 instructions: 880000001 cycles: 5163732631 heartbeat IPC: 0.134917 cumulative IPC: 0.170419 (Simulation time: 4 hr 5 min 31 sec) 
Heartbeat CPU 0 instructions: 890000000 cycles: 5224748616 heartbeat IPC: 0.163891 cumulative IPC: 0.170343 (Simulation time: 4 hr 8 min 16 sec) 
Heartbeat CPU 0 instructions: 900000000 cycles: 5278963764 heartbeat IPC: 0.18445 cumulative IPC: 0.170488 (Simulation time: 4 hr 10 min 51 sec) 
Heartbeat CPU 0 instructions: 910000002 cycles: 5321001825 heartbeat IPC: 0.23788 cumulative IPC: 0.17102 (Simulation time: 4 hr 12 min 54 sec) 
Heartbeat CPU 0 instructions: 920000000 cycles: 5368692795 heartbeat IPC: 0.209683 cumulative IPC: 0.171364 (Simulation time: 4 hr 14 min 58 sec) 
Heartbeat CPU 0 instructions: 930000004 cycles: 5421229710 heartbeat IPC: 0.190342 cumulative IPC: 0.171548 (Simulation time: 4 hr 17 min 13 sec) 
Heartbeat CPU 0 instructions: 940000000 cycles: 5468574916 heartbeat IPC: 0.211215 cumulative IPC: 0.171891 (Simulation time: 4 hr 19 min 26 sec) 
Heartbeat CPU 0 instructions: 950000002 cycles: 5536792170 heartbeat IPC: 0.146591 cumulative IPC: 0.171579 (Simulation time: 4 hr 22 min 56 sec) 
Heartbeat CPU 0 instructions: 960000002 cycles: 5582899174 heartbeat IPC: 0.216887 cumulative IPC: 0.171954 (Simulation time: 4 hr 25 min 15 sec) 
Heartbeat CPU 0 instructions: 970000000 cycles: 5639550503 heartbeat IPC: 0.176518 cumulative IPC: 0.172 (Simulation time: 4 hr 27 min 32 sec) 
Heartbeat CPU 0 instructions: 980000003 cycles: 5683377317 heartbeat IPC: 0.228171 cumulative IPC: 0.172433 (Simulation time: 4 hr 29 min 40 sec) 
Heartbeat CPU 0 instructions: 990000000 cycles: 5726198644 heartbeat IPC: 0.233528 cumulative IPC: 0.17289 (Simulation time: 4 hr 31 min 46 sec) 
Heartbeat CPU 0 instructions: 1000000003 cycles: 5793449906 heartbeat IPC: 0.148696 cumulative IPC: 0.172609 (Simulation time: 4 hr 34 min 19 sec) 
Finished CPU 0 instructions: 1000000004 cycles: 5793449851 cumulative IPC: 0.172609 (Simulation time: 4 hr 34 min 19 sec) 

ChampSim completed all CPUs

Region of Interest Statistics

CPU 0 cumulative IPC: 0.172609 instructions: 1000000004 cycles: 5793449851
cpu0_DTLB TOTAL     ACCESS:  220981239  HIT:  216411628  MISS:    4569611
cpu0_DTLB LOAD      ACCESS:  129099855  HIT:  124544022  MISS:    4555833
cpu0_DTLB RFO       ACCESS:   91881384  HIT:   91867606  MISS:      13778
cpu0_DTLB PREFETCH  ACCESS:          0  HIT:          0  MISS:          0
cpu0_DTLB WRITEBACK ACCESS:          0  HIT:          0  MISS:          0
cpu0_DTLB TRANSLATION ACCESS:          0  HIT:          0  MISS:          0
cpu0_DTLB PREFETCH  REQUESTED:          0  ISSUED:          0  USEFUL:          0  USELESS:          0
cpu0_DTLB AVERAGE MISS LATENCY: 71.6016 cycles
cpu0_ITLB TOTAL     ACCESS:   29874506  HIT:   29874506  MISS:          0
cpu0_ITLB LOAD      ACCESS:   29874506  HIT:   29874506  MISS:          0
cpu0_ITLB RFO       ACCESS:          0  HIT:          0  MISS:          0
cpu0_ITLB PREFETCH  ACCESS:          0  HIT:          0  MISS:          0
cpu0_ITLB WRITEBACK ACCESS:          0  HIT:          0  MISS:          0
cpu0_ITLB TRANSLATION ACCESS:          0  HIT:          0  MISS:          0
cpu0_ITLB PREFETCH  REQUESTED:          0  ISSUED:          0  USEFUL:          0  USELESS:          0
cpu0_ITLB AVERAGE MISS LATENCY: -nan cycles
cpu0_L1I TOTAL     ACCESS:         14  HIT:          6  MISS:          8
cpu0_L1I LOAD      ACCESS:         14  HIT:          6  MISS:          8
cpu0_L1I RFO       ACCESS:          0  HIT:          0  MISS:          0
cpu0_L1I PREFETCH  ACCESS:          0  HIT:          0  MISS:          0
cpu0_L1I WRITEBACK ACCESS:          0  HIT:          0  MISS:          0
cpu0_L1I TRANSLATION ACCESS:          0  HIT:          0  MISS:          0
cpu0_L1I PREFETCH  REQUESTED:          0  ISSUED:          0  USEFUL:          0  USELESS:          0
cpu0_L1I AVERAGE MISS LATENCY: 371.25 cycles
cpu0_STLB TOTAL     ACCESS:    4569611  HIT:    1562687  MISS:    3006924
cpu0_STLB LOAD      ACCESS:    4555833  HIT:    1549079  MISS:    3006754
cpu0_STLB RFO       ACCESS:      13778  HIT:      13608  MISS:        170
cpu0_STLB PREFETCH  ACCESS:          0  HIT:          0  MISS:          0
cpu0_STLB WRITEBACK ACCESS:          0  HIT:          0  MISS:          0
cpu0_STLB TRANSLATION ACCESS:          0  HIT:          0  MISS:          0
cpu0_STLB PREFETCH  REQUESTED:          0  ISSUED:          0  USEFUL:          0  USELESS:          0
cpu0_STLB AVERAGE MISS LATENCY: 95.1325 cycles
cpu0_L1D TOTAL     ACCESS:  526043535  HIT:  485304506  MISS:   40739029
cpu0_L1D LOAD      ACCESS:  142761771  HIT:  116988083  MISS:   25773688
cpu0_L1D RFO       ACCESS:  244358834  HIT:  244346305  MISS:      12529
cpu0_L1D PREFETCH  ACCESS:  135932621  HIT:  121200965  MISS:   14731656
cpu0_L1D WRITEBACK ACCESS:          0  HIT:          0  MISS:          0
cpu0_L1D TRANSLATION ACCESS:    2990309  HIT:    2769153  MISS:     221156
cpu0_L1D PREFETCH  REQUESTED:  151587991  ISSUED:  151041210  USEFUL:    6679128  USELESS:    9119058
cpu0_L1D AVERAGE MISS LATENCY: 569.457 cycles
cpu0_L2C TOTAL     ACCESS:   66606335  HIT:   26427421  MISS:   40178914
cpu0_L2C LOAD      ACCESS:   24689503  HIT:    1055553  MISS:   23633950
cpu0_L2C RFO       ACCESS:      12507  HIT:      11474  MISS:       1033
cpu0_L2C PREFETCH  ACCESS:   28095935  HIT:   11662151  MISS:   16433784
cpu0_L2C WRITEBACK ACCESS:   13587234  HIT:   13525465  MISS:      61769
cpu0_L2C TRANSLATION ACCESS:     221156  HIT:     172778  MISS:      48378
cpu0_L2C PREFETCH  REQUESTED:   12300211  ISSUED:   12299767  USEFUL:     978693  USELESS:      78444
cpu0_L2C AVERAGE MISS LATENCY: 595.495 cycles
LLC TOTAL     ACCESS:   52946724  HIT:   13441293  MISS:   39505431
LLC LOAD      ACCESS:   23633818  HIT:     415389  MISS:   23218429
LLC RFO       ACCESS:       1033  HIT:        664  MISS:        369
LLC PREFETCH  ACCESS:   16434663  HIT:     172696  MISS:   16261967
LLC WRITEBACK ACCESS:   12828832  HIT:   12817672  MISS:      11160
LLC TRANSLATION ACCESS:      48378  HIT:      34872  MISS:      13506
LLC PREFETCH  REQUESTED:          0  ISSUED:          0  USEFUL:          0  USELESS:          0
LLC AVERAGE MISS LATENCY: 578.251 cycles

DRAM Statistics
 CHANNEL 0
 RQ ROW_BUFFER_HIT:     908495  ROW_BUFFER_MISS:   38584100
 DBUS AVG_CONGESTED_CYCLE:     3.9428
 WQ ROW_BUFFER_HIT:      41819  ROW_BUFFER_MISS:   12441864  FULL:          0


CPU 0 Branch Prediction Accuracy: 96.8284% MPKI: 2.86319 Average ROB Occupancy at Mispredict: 65.3848
Branch type MPKI
BRANCH_DIRECT_JUMP: 4e-06
BRANCH_INDIRECT: 0
BRANCH_CONDITIONAL: 2.86319
BRANCH_DIRECT_CALL: 1e-06
BRANCH_INDIRECT_CALL: 0
BRANCH_RETURN: 2e-06

