
*** ChampSim Multicore Out-of-Order Simulator ***

Warmup Instructions: 1000000
Simulation Instructions: 1000000000
Number of CPUs: 1
Off-chip DRAM Size: 4 GiB Channels: 1 Width: 64-bit Data Rate: 3200 MT/s

VirtualMemory physical capacity: 8588881920 num_ppages: 2096895
VirtualMemory page size: 4096 log2_page_size: 12

CPU 0 runs tracer/pin/traces/spec2k17/641.leela_s-800B.champsimtrace.xz
Basic BTB sets: 1024 ways: 8 indirect buffer size: 4096 RAS size: 64
cpu0_L1D next line prefetcher
cpu0_L2C IP-based stride prefetcher
WARNING: The extended signature CACHE::prefetch_line(ip, base_addr, pf_addr, fill_this_level, prefetch_metadata) is deprecated.
WARNING: Use CACHE::prefetch_line(pf_addr, fill_this_level, prefetch_metadata) instead.

Warmup complete CPU 0 instructions: 1000004 cycles: 251734 (Simulation time: 0 hr 0 min 4 sec) 

Heartbeat CPU 0 instructions: 10000000 cycles: 8858642 heartbeat IPC: 1.12884 cumulative IPC: 1.04567 (Simulation time: 0 hr 0 min 51 sec) 
Heartbeat CPU 0 instructions: 20000002 cycles: 18091055 heartbeat IPC: 1.08314 cumulative IPC: 1.06506 (Simulation time: 0 hr 1 min 45 sec) 
Heartbeat CPU 0 instructions: 30000004 cycles: 27294434 heartbeat IPC: 1.08656 cumulative IPC: 1.07238 (Simulation time: 0 hr 2 min 38 sec) 
Heartbeat CPU 0 instructions: 40000000 cycles: 36435144 heartbeat IPC: 1.09401 cumulative IPC: 1.07784 (Simulation time: 0 hr 3 min 32 sec) 
Heartbeat CPU 0 instructions: 50000002 cycles: 45588913 heartbeat IPC: 1.09245 cumulative IPC: 1.08079 (Simulation time: 0 hr 4 min 26 sec) 
Heartbeat CPU 0 instructions: 60000000 cycles: 54768991 heartbeat IPC: 1.08932 cumulative IPC: 1.08223 (Simulation time: 0 hr 5 min 20 sec) 
Heartbeat CPU 0 instructions: 70000002 cycles: 63941617 heartbeat IPC: 1.0902 cumulative IPC: 1.08337 (Simulation time: 0 hr 6 min 13 sec) 
Heartbeat CPU 0 instructions: 80000001 cycles: 73081702 heartbeat IPC: 1.09408 cumulative IPC: 1.08472 (Simulation time: 0 hr 7 min 6 sec) 
Heartbeat CPU 0 instructions: 90000000 cycles: 82128125 heartbeat IPC: 1.10541 cumulative IPC: 1.087 (Simulation time: 0 hr 7 min 59 sec) 
Heartbeat CPU 0 instructions: 100000000 cycles: 91301744 heartbeat IPC: 1.09008 cumulative IPC: 1.08731 (Simulation time: 0 hr 8 min 54 sec) 
Heartbeat CPU 0 instructions: 110000000 cycles: 100390584 heartbeat IPC: 1.10025 cumulative IPC: 1.08849 (Simulation time: 0 hr 9 min 48 sec) 
Heartbeat CPU 0 instructions: 120000001 cycles: 117119669 heartbeat IPC: 0.597761 cumulative IPC: 1.01824 (Simulation time: 0 hr 11 min 24 sec) 
Heartbeat CPU 0 instructions: 130000000 cycles: 126364188 heartbeat IPC: 1.08172 cumulative IPC: 1.0229 (Simulation time: 0 hr 12 min 18 sec) 
Heartbeat CPU 0 instructions: 140000001 cycles: 135492345 heartbeat IPC: 1.09551 cumulative IPC: 1.0278 (Simulation time: 0 hr 13 min 11 sec) 
Heartbeat CPU 0 instructions: 150000004 cycles: 144535032 heartbeat IPC: 1.10587 cumulative IPC: 1.03269 (Simulation time: 0 hr 14 min 5 sec) 
Heartbeat CPU 0 instructions: 160000003 cycles: 153619529 heartbeat IPC: 1.10078 cumulative IPC: 1.03672 (Simulation time: 0 hr 14 min 59 sec) 
Heartbeat CPU 0 instructions: 170000002 cycles: 162902615 heartbeat IPC: 1.07723 cumulative IPC: 1.03904 (Simulation time: 0 hr 15 min 53 sec) 
Heartbeat CPU 0 instructions: 180000000 cycles: 172016660 heartbeat IPC: 1.09721 cumulative IPC: 1.04212 (Simulation time: 0 hr 16 min 47 sec) 
Heartbeat CPU 0 instructions: 190000000 cycles: 181117927 heartbeat IPC: 1.09875 cumulative IPC: 1.04497 (Simulation time: 0 hr 17 min 40 sec) 
Heartbeat CPU 0 instructions: 200000000 cycles: 190299071 heartbeat IPC: 1.08919 cumulative IPC: 1.04711 (Simulation time: 0 hr 18 min 35 sec) 
Heartbeat CPU 0 instructions: 210000003 cycles: 199312345 heartbeat IPC: 1.10948 cumulative IPC: 1.04993 (Simulation time: 0 hr 19 min 29 sec) 
Heartbeat CPU 0 instructions: 220000000 cycles: 208394150 heartbeat IPC: 1.1011 cumulative IPC: 1.05216 (Simulation time: 0 hr 20 min 22 sec) 
Heartbeat CPU 0 instructions: 230000003 cycles: 217539169 heartbeat IPC: 1.09349 cumulative IPC: 1.0539 (Simulation time: 0 hr 21 min 17 sec) 
Heartbeat CPU 0 instructions: 240000001 cycles: 226617943 heartbeat IPC: 1.10147 cumulative IPC: 1.05581 (Simulation time: 0 hr 22 min 10 sec) 
Heartbeat CPU 0 instructions: 250000001 cycles: 235702005 heartbeat IPC: 1.10083 cumulative IPC: 1.05755 (Simulation time: 0 hr 23 min 4 sec) 
Heartbeat CPU 0 instructions: 260000003 cycles: 244723313 heartbeat IPC: 1.10849 cumulative IPC: 1.05943 (Simulation time: 0 hr 23 min 58 sec) 
Heartbeat CPU 0 instructions: 270000003 cycles: 253770118 heartbeat IPC: 1.10536 cumulative IPC: 1.06107 (Simulation time: 0 hr 24 min 51 sec) 
Heartbeat CPU 0 instructions: 280000001 cycles: 262871224 heartbeat IPC: 1.09877 cumulative IPC: 1.06237 (Simulation time: 0 hr 25 min 45 sec) 
Heartbeat CPU 0 instructions: 290000002 cycles: 271843258 heartbeat IPC: 1.11457 cumulative IPC: 1.0641 (Simulation time: 0 hr 26 min 38 sec) 
Heartbeat CPU 0 instructions: 300000001 cycles: 280887560 heartbeat IPC: 1.10567 cumulative IPC: 1.06544 (Simulation time: 0 hr 27 min 31 sec) 
Heartbeat CPU 0 instructions: 310000001 cycles: 289915251 heartbeat IPC: 1.1077 cumulative IPC: 1.06675 (Simulation time: 0 hr 28 min 24 sec) 
Heartbeat CPU 0 instructions: 320000000 cycles: 298936190 heartbeat IPC: 1.10853 cumulative IPC: 1.06802 (Simulation time: 0 hr 29 min 18 sec) 
Heartbeat CPU 0 instructions: 330000000 cycles: 307949607 heartbeat IPC: 1.10946 cumulative IPC: 1.06923 (Simulation time: 0 hr 30 min 12 sec) 
Heartbeat CPU 0 instructions: 340000001 cycles: 316987218 heartbeat IPC: 1.10649 cumulative IPC: 1.07029 (Simulation time: 0 hr 31 min 6 sec) 
Heartbeat CPU 0 instructions: 350000003 cycles: 326053946 heartbeat IPC: 1.10293 cumulative IPC: 1.0712 (Simulation time: 0 hr 32 min 1 sec) 
Heartbeat CPU 0 instructions: 360000000 cycles: 335126984 heartbeat IPC: 1.10217 cumulative IPC: 1.07204 (Simulation time: 0 hr 32 min 56 sec) 
Heartbeat CPU 0 instructions: 370000002 cycles: 344087988 heartbeat IPC: 1.11595 cumulative IPC: 1.07319 (Simulation time: 0 hr 33 min 50 sec) 
Heartbeat CPU 0 instructions: 380000002 cycles: 353175760 heartbeat IPC: 1.10038 cumulative IPC: 1.07389 (Simulation time: 0 hr 34 min 45 sec) 
Heartbeat CPU 0 instructions: 390000000 cycles: 362247529 heartbeat IPC: 1.10232 cumulative IPC: 1.0746 (Simulation time: 0 hr 35 min 38 sec) 
Heartbeat CPU 0 instructions: 400000003 cycles: 371249772 heartbeat IPC: 1.11083 cumulative IPC: 1.07548 (Simulation time: 0 hr 36 min 31 sec) 
Heartbeat CPU 0 instructions: 410000002 cycles: 380268212 heartbeat IPC: 1.10884 cumulative IPC: 1.07627 (Simulation time: 0 hr 37 min 25 sec) 
Heartbeat CPU 0 instructions: 420000000 cycles: 389382247 heartbeat IPC: 1.09721 cumulative IPC: 1.07676 (Simulation time: 0 hr 38 min 18 sec) 
Heartbeat CPU 0 instructions: 430000000 cycles: 398504322 heartbeat IPC: 1.09624 cumulative IPC: 1.07721 (Simulation time: 0 hr 39 min 11 sec) 
Heartbeat CPU 0 instructions: 440000004 cycles: 407592832 heartbeat IPC: 1.10029 cumulative IPC: 1.07772 (Simulation time: 0 hr 40 min 5 sec) 
Heartbeat CPU 0 instructions: 450000003 cycles: 416656358 heartbeat IPC: 1.10332 cumulative IPC: 1.07828 (Simulation time: 0 hr 40 min 59 sec) 
Heartbeat CPU 0 instructions: 460000000 cycles: 425736989 heartbeat IPC: 1.10124 cumulative IPC: 1.07877 (Simulation time: 0 hr 41 min 54 sec) 
Heartbeat CPU 0 instructions: 470000002 cycles: 434869103 heartbeat IPC: 1.09504 cumulative IPC: 1.07911 (Simulation time: 0 hr 42 min 47 sec) 
Heartbeat CPU 0 instructions: 480000000 cycles: 443954933 heartbeat IPC: 1.10061 cumulative IPC: 1.07955 (Simulation time: 0 hr 43 min 40 sec) 
Heartbeat CPU 0 instructions: 490000000 cycles: 452946721 heartbeat IPC: 1.11213 cumulative IPC: 1.0802 (Simulation time: 0 hr 44 min 33 sec) 
Heartbeat CPU 0 instructions: 500000002 cycles: 461903285 heartbeat IPC: 1.1165 cumulative IPC: 1.0809 (Simulation time: 0 hr 45 min 26 sec) 
Heartbeat CPU 0 instructions: 510000004 cycles: 470969397 heartbeat IPC: 1.10301 cumulative IPC: 1.08133 (Simulation time: 0 hr 46 min 19 sec) 
Heartbeat CPU 0 instructions: 520000000 cycles: 480071437 heartbeat IPC: 1.09865 cumulative IPC: 1.08166 (Simulation time: 0 hr 47 min 11 sec) 
Heartbeat CPU 0 instructions: 530000002 cycles: 489143499 heartbeat IPC: 1.10229 cumulative IPC: 1.08204 (Simulation time: 0 hr 48 min 5 sec) 
Heartbeat CPU 0 instructions: 540000001 cycles: 498201106 heartbeat IPC: 1.10404 cumulative IPC: 1.08244 (Simulation time: 0 hr 48 min 59 sec) 
Heartbeat CPU 0 instructions: 550000001 cycles: 507230689 heartbeat IPC: 1.10747 cumulative IPC: 1.08289 (Simulation time: 0 hr 49 min 53 sec) 
Heartbeat CPU 0 instructions: 560000002 cycles: 516310815 heartbeat IPC: 1.10131 cumulative IPC: 1.08321 (Simulation time: 0 hr 50 min 47 sec) 
Heartbeat CPU 0 instructions: 570000004 cycles: 525367610 heartbeat IPC: 1.10414 cumulative IPC: 1.08357 (Simulation time: 0 hr 51 min 41 sec) 
Heartbeat CPU 0 instructions: 580000003 cycles: 534349801 heartbeat IPC: 1.11331 cumulative IPC: 1.08407 (Simulation time: 0 hr 52 min 36 sec) 
Heartbeat CPU 0 instructions: 590000001 cycles: 543350235 heartbeat IPC: 1.11106 cumulative IPC: 1.08452 (Simulation time: 0 hr 53 min 29 sec) 
Heartbeat CPU 0 instructions: 600000000 cycles: 552349786 heartbeat IPC: 1.11117 cumulative IPC: 1.08495 (Simulation time: 0 hr 54 min 22 sec) 
Heartbeat CPU 0 instructions: 610000002 cycles: 561380875 heartbeat IPC: 1.10729 cumulative IPC: 1.08531 (Simulation time: 0 hr 55 min 16 sec) 
Heartbeat CPU 0 instructions: 620000004 cycles: 570460822 heartbeat IPC: 1.10133 cumulative IPC: 1.08557 (Simulation time: 0 hr 56 min 10 sec) 
Heartbeat CPU 0 instructions: 630000003 cycles: 579545116 heartbeat IPC: 1.1008 cumulative IPC: 1.08581 (Simulation time: 0 hr 57 min 4 sec) 
Heartbeat CPU 0 instructions: 640000002 cycles: 588649717 heartbeat IPC: 1.09835 cumulative IPC: 1.086 (Simulation time: 0 hr 57 min 57 sec) 
Heartbeat CPU 0 instructions: 650000001 cycles: 597704368 heartbeat IPC: 1.1044 cumulative IPC: 1.08628 (Simulation time: 0 hr 58 min 51 sec) 
Heartbeat CPU 0 instructions: 660000002 cycles: 606719572 heartbeat IPC: 1.10924 cumulative IPC: 1.08662 (Simulation time: 0 hr 59 min 44 sec) 
Heartbeat CPU 0 instructions: 670000000 cycles: 615778711 heartbeat IPC: 1.10386 cumulative IPC: 1.08687 (Simulation time: 1 hr 0 min 36 sec) 
Heartbeat CPU 0 instructions: 680000004 cycles: 624854081 heartbeat IPC: 1.10188 cumulative IPC: 1.08709 (Simulation time: 1 hr 1 min 29 sec) 
Heartbeat CPU 0 instructions: 690000000 cycles: 633875569 heartbeat IPC: 1.10846 cumulative IPC: 1.0874 (Simulation time: 1 hr 2 min 23 sec) 
Heartbeat CPU 0 instructions: 700000001 cycles: 642923725 heartbeat IPC: 1.1052 cumulative IPC: 1.08765 (Simulation time: 1 hr 3 min 16 sec) 
Heartbeat CPU 0 instructions: 710000002 cycles: 651913408 heartbeat IPC: 1.11239 cumulative IPC: 1.08799 (Simulation time: 1 hr 4 min 8 sec) 
Heartbeat CPU 0 instructions: 720000000 cycles: 661004641 heartbeat IPC: 1.09996 cumulative IPC: 1.08815 (Simulation time: 1 hr 5 min 1 sec) 
Heartbeat CPU 0 instructions: 730000000 cycles: 670073516 heartbeat IPC: 1.10267 cumulative IPC: 1.08835 (Simulation time: 1 hr 5 min 54 sec) 
Heartbeat CPU 0 instructions: 740000001 cycles: 679119860 heartbeat IPC: 1.10542 cumulative IPC: 1.08858 (Simulation time: 1 hr 6 min 45 sec) 
Heartbeat CPU 0 instructions: 750000000 cycles: 688188635 heartbeat IPC: 1.10268 cumulative IPC: 1.08876 (Simulation time: 1 hr 7 min 37 sec) 
Heartbeat CPU 0 instructions: 760000002 cycles: 697242329 heartbeat IPC: 1.10452 cumulative IPC: 1.08897 (Simulation time: 1 hr 8 min 29 sec) 
Heartbeat CPU 0 instructions: 770000000 cycles: 706262828 heartbeat IPC: 1.10859 cumulative IPC: 1.08922 (Simulation time: 1 hr 9 min 20 sec) 
Heartbeat CPU 0 instructions: 780000002 cycles: 715360736 heartbeat IPC: 1.09915 cumulative IPC: 1.08934 (Simulation time: 1 hr 10 min 10 sec) 
Heartbeat CPU 0 instructions: 790000000 cycles: 724363144 heartbeat IPC: 1.11081 cumulative IPC: 1.08961 (Simulation time: 1 hr 11 min 0 sec) 
Heartbeat CPU 0 instructions: 800000000 cycles: 733411447 heartbeat IPC: 1.10518 cumulative IPC: 1.0898 (Simulation time: 1 hr 11 min 49 sec) 
Heartbeat CPU 0 instructions: 810000000 cycles: 742438273 heartbeat IPC: 1.10781 cumulative IPC: 1.09002 (Simulation time: 1 hr 12 min 38 sec) 
Heartbeat CPU 0 instructions: 820000000 cycles: 751513873 heartbeat IPC: 1.10186 cumulative IPC: 1.09017 (Simulation time: 1 hr 13 min 28 sec) 
Heartbeat CPU 0 instructions: 830000003 cycles: 760548131 heartbeat IPC: 1.1069 cumulative IPC: 1.09036 (Simulation time: 1 hr 14 min 16 sec) 
Heartbeat CPU 0 instructions: 840000002 cycles: 769548753 heartbeat IPC: 1.11103 cumulative IPC: 1.09061 (Simulation time: 1 hr 15 min 4 sec) 
Heartbeat CPU 0 instructions: 850000004 cycles: 778602721 heartbeat IPC: 1.10449 cumulative IPC: 1.09077 (Simulation time: 1 hr 15 min 52 sec) 
Heartbeat CPU 0 instructions: 860000000 cycles: 787638994 heartbeat IPC: 1.10665 cumulative IPC: 1.09095 (Simulation time: 1 hr 16 min 40 sec) 
Heartbeat CPU 0 instructions: 870000004 cycles: 796702012 heartbeat IPC: 1.10339 cumulative IPC: 1.09109 (Simulation time: 1 hr 17 min 28 sec) 
Heartbeat CPU 0 instructions: 880000002 cycles: 805798400 heartbeat IPC: 1.09934 cumulative IPC: 1.09118 (Simulation time: 1 hr 18 min 16 sec) 
Heartbeat CPU 0 instructions: 890000003 cycles: 814785463 heartbeat IPC: 1.11271 cumulative IPC: 1.09142 (Simulation time: 1 hr 19 min 5 sec) 
Heartbeat CPU 0 instructions: 900000000 cycles: 823744577 heartbeat IPC: 1.11618 cumulative IPC: 1.09169 (Simulation time: 1 hr 19 min 54 sec) 
Heartbeat CPU 0 instructions: 910000001 cycles: 832677892 heartbeat IPC: 1.11941 cumulative IPC: 1.09199 (Simulation time: 1 hr 20 min 42 sec) 
Heartbeat CPU 0 instructions: 920000002 cycles: 841684890 heartbeat IPC: 1.11025 cumulative IPC: 1.09218 (Simulation time: 1 hr 21 min 30 sec) 
Heartbeat CPU 0 instructions: 930000002 cycles: 850782096 heartbeat IPC: 1.09924 cumulative IPC: 1.09226 (Simulation time: 1 hr 22 min 17 sec) 
Heartbeat CPU 0 instructions: 940000001 cycles: 859730389 heartbeat IPC: 1.11753 cumulative IPC: 1.09252 (Simulation time: 1 hr 23 min 3 sec) 
Heartbeat CPU 0 instructions: 950000000 cycles: 868789619 heartbeat IPC: 1.10385 cumulative IPC: 1.09264 (Simulation time: 1 hr 23 min 50 sec) 
Heartbeat CPU 0 instructions: 960000001 cycles: 887010262 heartbeat IPC: 0.548828 cumulative IPC: 1.08147 (Simulation time: 1 hr 25 min 17 sec) 
Heartbeat CPU 0 instructions: 970000003 cycles: 896071861 heartbeat IPC: 1.10356 cumulative IPC: 1.08169 (Simulation time: 1 hr 26 min 3 sec) 
Heartbeat CPU 0 instructions: 980000001 cycles: 905033145 heartbeat IPC: 1.11591 cumulative IPC: 1.08203 (Simulation time: 1 hr 26 min 48 sec) 
Heartbeat CPU 0 instructions: 990000001 cycles: 914061755 heartbeat IPC: 1.10759 cumulative IPC: 1.08228 (Simulation time: 1 hr 27 min 33 sec) 
Heartbeat CPU 0 instructions: 1000000001 cycles: 923140648 heartbeat IPC: 1.10146 cumulative IPC: 1.08247 (Simulation time: 1 hr 28 min 21 sec) 
Finished CPU 0 instructions: 1000000001 cycles: 923796459 cumulative IPC: 1.08249 (Simulation time: 1 hr 28 min 25 sec) 

ChampSim completed all CPUs

Region of Interest Statistics

CPU 0 cumulative IPC: 1.08249 instructions: 1000000001 cycles: 923796459
cpu0_DTLB TOTAL     ACCESS:  191239737  HIT:  190836431  MISS:     403306
cpu0_DTLB LOAD      ACCESS:  132628934  HIT:  132238522  MISS:     390412
cpu0_DTLB RFO       ACCESS:   58610803  HIT:   58597909  MISS:      12894
cpu0_DTLB PREFETCH  ACCESS:          0  HIT:          0  MISS:          0
cpu0_DTLB WRITEBACK ACCESS:          0  HIT:          0  MISS:          0
cpu0_DTLB TRANSLATION ACCESS:          0  HIT:          0  MISS:          0
cpu0_DTLB PREFETCH  REQUESTED:          0  ISSUED:          0  USEFUL:          0  USELESS:          0
cpu0_DTLB AVERAGE MISS LATENCY: 9.81281 cycles
cpu0_ITLB TOTAL     ACCESS:   99670199  HIT:   99670120  MISS:         79
cpu0_ITLB LOAD      ACCESS:   99670199  HIT:   99670120  MISS:         79
cpu0_ITLB RFO       ACCESS:          0  HIT:          0  MISS:          0
cpu0_ITLB PREFETCH  ACCESS:          0  HIT:          0  MISS:          0
cpu0_ITLB WRITEBACK ACCESS:          0  HIT:          0  MISS:          0
cpu0_ITLB TRANSLATION ACCESS:          0  HIT:          0  MISS:          0
cpu0_ITLB PREFETCH  REQUESTED:          0  ISSUED:          0  USEFUL:          0  USELESS:          0
cpu0_ITLB AVERAGE MISS LATENCY: 133.987 cycles
cpu0_L1I TOTAL     ACCESS:   96488521  HIT:   96465468  MISS:      23053
cpu0_L1I LOAD      ACCESS:   96488521  HIT:   96465468  MISS:      23053
cpu0_L1I RFO       ACCESS:          0  HIT:          0  MISS:          0
cpu0_L1I PREFETCH  ACCESS:          0  HIT:          0  MISS:          0
cpu0_L1I WRITEBACK ACCESS:          0  HIT:          0  MISS:          0
cpu0_L1I TRANSLATION ACCESS:          0  HIT:          0  MISS:          0
cpu0_L1I PREFETCH  REQUESTED:          0  ISSUED:          0  USEFUL:          0  USELESS:          0
cpu0_L1I AVERAGE MISS LATENCY: 45.7042 cycles
cpu0_STLB TOTAL     ACCESS:     403385  HIT:     401425  MISS:       1960
cpu0_STLB LOAD      ACCESS:     390491  HIT:     389249  MISS:       1242
cpu0_STLB RFO       ACCESS:      12894  HIT:      12176  MISS:        718
cpu0_STLB PREFETCH  ACCESS:          0  HIT:          0  MISS:          0
cpu0_STLB WRITEBACK ACCESS:          0  HIT:          0  MISS:          0
cpu0_STLB TRANSLATION ACCESS:          0  HIT:          0  MISS:          0
cpu0_STLB PREFETCH  REQUESTED:          0  ISSUED:          0  USEFUL:          0  USELESS:          0
cpu0_STLB AVERAGE MISS LATENCY: 172.263 cycles
cpu0_L1D TOTAL     ACCESS:  435298678  HIT:  431090638  MISS:    4208040
cpu0_L1D LOAD      ACCESS:  161713324  HIT:  159456672  MISS:    2256652
cpu0_L1D RFO       ACCESS:  113988691  HIT:  113650145  MISS:     338546
cpu0_L1D PREFETCH  ACCESS:  159594707  HIT:  157982556  MISS:    1612151
cpu0_L1D WRITEBACK ACCESS:          0  HIT:          0  MISS:          0
cpu0_L1D TRANSLATION ACCESS:       1956  HIT:       1265  MISS:        691
cpu0_L1D PREFETCH  REQUESTED:  161743660  ISSUED:  160346463  USEFUL:    1012500  USELESS:     658685
cpu0_L1D AVERAGE MISS LATENCY: 24.5489 cycles
cpu0_L2C TOTAL     ACCESS:    6917327  HIT:    6556016  MISS:     361311
cpu0_L2C LOAD      ACCESS:    2223255  HIT:    2102926  MISS:     120329
cpu0_L2C RFO       ACCESS:     335902  HIT:     266170  MISS:      69732
cpu0_L2C PREFETCH  ACCESS:    3734060  HIT:    3563794  MISS:     170266
cpu0_L2C WRITEBACK ACCESS:     623419  HIT:     622789  MISS:        630
cpu0_L2C TRANSLATION ACCESS:        691  HIT:        337  MISS:        354
cpu0_L2C PREFETCH  REQUESTED:    2104840  ISSUED:    2073970  USEFUL:       7876  USELESS:       3489
cpu0_L2C AVERAGE MISS LATENCY: 207.495 cycles
LLC TOTAL     ACCESS:     452462  HIT:     314733  MISS:     137729
LLC LOAD      ACCESS:     120329  HIT:     103402  MISS:      16927
LLC RFO       ACCESS:      69717  HIT:       8158  MISS:      61559
LLC PREFETCH  ACCESS:     170539  HIT:     111346  MISS:      59193
LLC WRITEBACK ACCESS:      91523  HIT:      91481  MISS:         42
LLC TRANSLATION ACCESS:        354  HIT:        346  MISS:          8
LLC PREFETCH  REQUESTED:          0  ISSUED:          0  USEFUL:          0  USELESS:          0
LLC AVERAGE MISS LATENCY: 475.65 cycles

DRAM Statistics
 CHANNEL 0
 RQ ROW_BUFFER_HIT:      10768  ROW_BUFFER_MISS:     126688
 DBUS AVG_CONGESTED_CYCLE:    3.93659
 WQ ROW_BUFFER_HIT:       1861  ROW_BUFFER_MISS:      48351  FULL:          0


CPU 0 Branch Prediction Accuracy: 88.2322% MPKI: 19.2457 Average ROB Occupancy at Mispredict: 18.8292
Branch type MPKI
BRANCH_DIRECT_JUMP: 0.00012
BRANCH_INDIRECT: 0.000764
BRANCH_CONDITIONAL: 19.2444
BRANCH_DIRECT_CALL: 0.000182
BRANCH_INDIRECT_CALL: 2.8e-05
BRANCH_RETURN: 0.00017

