
*** ChampSim Multicore Out-of-Order Simulator ***

Warmup Instructions: 1000000
Simulation Instructions: 1000000000
Number of CPUs: 1
Off-chip DRAM Size: 4 GiB Channels: 1 Width: 64-bit Data Rate: 3200 MT/s

VirtualMemory physical capacity: 8588881920 num_ppages: 2096895
VirtualMemory page size: 4096 log2_page_size: 12

CPU 0 runs tracer/pin/traces/spec2k17/657.xz_s-3167B.champsimtrace.xz
Basic BTB sets: 1024 ways: 8 indirect buffer size: 4096 RAS size: 64
cpu0_L1D next line prefetcher
cpu0_L2C IP-based stride prefetcher
WARNING: The extended signature CACHE::prefetch_line(ip, base_addr, pf_addr, fill_this_level, prefetch_metadata) is deprecated.
WARNING: Use CACHE::prefetch_line(pf_addr, fill_this_level, prefetch_metadata) instead.

Warmup complete CPU 0 instructions: 1000002 cycles: 250248 (Simulation time: 0 hr 0 min 3 sec) 

Heartbeat CPU 0 instructions: 10000002 cycles: 8578377 heartbeat IPC: 1.16572 cumulative IPC: 1.08067 (Simulation time: 0 hr 0 min 47 sec) 
Heartbeat CPU 0 instructions: 20000000 cycles: 15397119 heartbeat IPC: 1.46655 cumulative IPC: 1.25438 (Simulation time: 0 hr 1 min 31 sec) 
Heartbeat CPU 0 instructions: 30000000 cycles: 23514088 heartbeat IPC: 1.23199 cumulative IPC: 1.24657 (Simulation time: 0 hr 2 min 17 sec) 
Heartbeat CPU 0 instructions: 40000001 cycles: 32645401 heartbeat IPC: 1.09513 cumulative IPC: 1.20388 (Simulation time: 0 hr 3 min 4 sec) 
Heartbeat CPU 0 instructions: 50000002 cycles: 41613563 heartbeat IPC: 1.11506 cumulative IPC: 1.18462 (Simulation time: 0 hr 3 min 52 sec) 
Heartbeat CPU 0 instructions: 60000003 cycles: 49550278 heartbeat IPC: 1.25997 cumulative IPC: 1.19675 (Simulation time: 0 hr 4 min 37 sec) 
Heartbeat CPU 0 instructions: 70000000 cycles: 56764100 heartbeat IPC: 1.38623 cumulative IPC: 1.22094 (Simulation time: 0 hr 5 min 19 sec) 
Heartbeat CPU 0 instructions: 80000002 cycles: 64332514 heartbeat IPC: 1.32128 cumulative IPC: 1.23279 (Simulation time: 0 hr 6 min 2 sec) 
Heartbeat CPU 0 instructions: 90000001 cycles: 71007875 heartbeat IPC: 1.49805 cumulative IPC: 1.25781 (Simulation time: 0 hr 6 min 44 sec) 
Heartbeat CPU 0 instructions: 100000001 cycles: 78589252 heartbeat IPC: 1.31902 cumulative IPC: 1.26374 (Simulation time: 0 hr 7 min 26 sec) 
Heartbeat CPU 0 instructions: 110000001 cycles: 85983336 heartbeat IPC: 1.35243 cumulative IPC: 1.27139 (Simulation time: 0 hr 8 min 9 sec) 
Heartbeat CPU 0 instructions: 120000002 cycles: 92523327 heartbeat IPC: 1.52905 cumulative IPC: 1.28965 (Simulation time: 0 hr 8 min 51 sec) 
Heartbeat CPU 0 instructions: 130000003 cycles: 98051176 heartbeat IPC: 1.80902 cumulative IPC: 1.31901 (Simulation time: 0 hr 9 min 32 sec) 
Heartbeat CPU 0 instructions: 140000003 cycles: 104822826 heartbeat IPC: 1.47675 cumulative IPC: 1.32922 (Simulation time: 0 hr 10 min 14 sec) 
Heartbeat CPU 0 instructions: 150000000 cycles: 110517958 heartbeat IPC: 1.75589 cumulative IPC: 1.35126 (Simulation time: 0 hr 10 min 54 sec) 
Heartbeat CPU 0 instructions: 160000002 cycles: 115899454 heartbeat IPC: 1.85822 cumulative IPC: 1.37485 (Simulation time: 0 hr 11 min 32 sec) 
Heartbeat CPU 0 instructions: 170000001 cycles: 123432924 heartbeat IPC: 1.32741 cumulative IPC: 1.37195 (Simulation time: 0 hr 12 min 15 sec) 
Heartbeat CPU 0 instructions: 180000003 cycles: 132908121 heartbeat IPC: 1.05539 cumulative IPC: 1.34934 (Simulation time: 0 hr 13 min 0 sec) 
Heartbeat CPU 0 instructions: 190000004 cycles: 144150098 heartbeat IPC: 0.889523 cumulative IPC: 1.31341 (Simulation time: 0 hr 13 min 47 sec) 
Heartbeat CPU 0 instructions: 200000000 cycles: 154362003 heartbeat IPC: 0.979249 cumulative IPC: 1.29127 (Simulation time: 0 hr 14 min 32 sec) 
Heartbeat CPU 0 instructions: 210000000 cycles: 164340336 heartbeat IPC: 1.00217 cumulative IPC: 1.27369 (Simulation time: 0 hr 15 min 15 sec) 
Heartbeat CPU 0 instructions: 220000001 cycles: 173022741 heartbeat IPC: 1.15175 cumulative IPC: 1.26756 (Simulation time: 0 hr 15 min 58 sec) 
Heartbeat CPU 0 instructions: 230000001 cycles: 180762867 heartbeat IPC: 1.29197 cumulative IPC: 1.26861 (Simulation time: 0 hr 16 min 41 sec) 
Heartbeat CPU 0 instructions: 240000002 cycles: 188354932 heartbeat IPC: 1.31716 cumulative IPC: 1.27057 (Simulation time: 0 hr 17 min 21 sec) 
Heartbeat CPU 0 instructions: 250000000 cycles: 195207118 heartbeat IPC: 1.45939 cumulative IPC: 1.27721 (Simulation time: 0 hr 17 min 59 sec) 
Heartbeat CPU 0 instructions: 260000000 cycles: 200970527 heartbeat IPC: 1.73508 cumulative IPC: 1.29035 (Simulation time: 0 hr 18 min 36 sec) 
Heartbeat CPU 0 instructions: 270000000 cycles: 206488295 heartbeat IPC: 1.81233 cumulative IPC: 1.30432 (Simulation time: 0 hr 19 min 10 sec) 
Heartbeat CPU 0 instructions: 280000000 cycles: 216160759 heartbeat IPC: 1.03386 cumulative IPC: 1.2922 (Simulation time: 0 hr 19 min 52 sec) 
Heartbeat CPU 0 instructions: 290000001 cycles: 223904107 heartbeat IPC: 1.29143 cumulative IPC: 1.29218 (Simulation time: 0 hr 20 min 30 sec) 
Heartbeat CPU 0 instructions: 300000002 cycles: 230407810 heartbeat IPC: 1.53759 cumulative IPC: 1.29911 (Simulation time: 0 hr 21 min 10 sec) 
Heartbeat CPU 0 instructions: 310000001 cycles: 236890351 heartbeat IPC: 1.5426 cumulative IPC: 1.30578 (Simulation time: 0 hr 21 min 47 sec) 
Heartbeat CPU 0 instructions: 320000004 cycles: 244612915 heartbeat IPC: 1.29491 cumulative IPC: 1.30544 (Simulation time: 0 hr 22 min 26 sec) 
Heartbeat CPU 0 instructions: 330000004 cycles: 250859577 heartbeat IPC: 1.60085 cumulative IPC: 1.3128 (Simulation time: 0 hr 23 min 2 sec) 
Heartbeat CPU 0 instructions: 340000001 cycles: 258753850 heartbeat IPC: 1.26674 cumulative IPC: 1.31139 (Simulation time: 0 hr 23 min 42 sec) 
Heartbeat CPU 0 instructions: 350000002 cycles: 267318563 heartbeat IPC: 1.16758 cumulative IPC: 1.30678 (Simulation time: 0 hr 24 min 25 sec) 
Heartbeat CPU 0 instructions: 360000002 cycles: 276052226 heartbeat IPC: 1.14499 cumulative IPC: 1.30166 (Simulation time: 0 hr 25 min 6 sec) 
Heartbeat CPU 0 instructions: 370000004 cycles: 283628579 heartbeat IPC: 1.3199 cumulative IPC: 1.30215 (Simulation time: 0 hr 25 min 44 sec) 
Heartbeat CPU 0 instructions: 380000003 cycles: 290662073 heartbeat IPC: 1.42177 cumulative IPC: 1.30504 (Simulation time: 0 hr 26 min 22 sec) 
Heartbeat CPU 0 instructions: 390000000 cycles: 299668685 heartbeat IPC: 1.1103 cumulative IPC: 1.29919 (Simulation time: 0 hr 27 min 5 sec) 
Heartbeat CPU 0 instructions: 400000001 cycles: 308115773 heartbeat IPC: 1.18384 cumulative IPC: 1.29602 (Simulation time: 0 hr 27 min 46 sec) 
Heartbeat CPU 0 instructions: 410000004 cycles: 317022065 heartbeat IPC: 1.1228 cumulative IPC: 1.29115 (Simulation time: 0 hr 28 min 26 sec) 
Heartbeat CPU 0 instructions: 420000002 cycles: 326188992 heartbeat IPC: 1.09088 cumulative IPC: 1.28552 (Simulation time: 0 hr 29 min 6 sec) 
Heartbeat CPU 0 instructions: 430000000 cycles: 334186317 heartbeat IPC: 1.25042 cumulative IPC: 1.28468 (Simulation time: 0 hr 29 min 45 sec) 
Heartbeat CPU 0 instructions: 440000004 cycles: 342083168 heartbeat IPC: 1.26633 cumulative IPC: 1.28425 (Simulation time: 0 hr 30 min 24 sec) 
Heartbeat CPU 0 instructions: 450000003 cycles: 349921753 heartbeat IPC: 1.27574 cumulative IPC: 1.28406 (Simulation time: 0 hr 31 min 2 sec) 
Heartbeat CPU 0 instructions: 460000000 cycles: 357654811 heartbeat IPC: 1.29315 cumulative IPC: 1.28426 (Simulation time: 0 hr 31 min 40 sec) 
Heartbeat CPU 0 instructions: 470000000 cycles: 365612082 heartbeat IPC: 1.25671 cumulative IPC: 1.28366 (Simulation time: 0 hr 32 min 19 sec) 
Heartbeat CPU 0 instructions: 480000003 cycles: 372556350 heartbeat IPC: 1.44004 cumulative IPC: 1.28658 (Simulation time: 0 hr 33 min 0 sec) 
Heartbeat CPU 0 instructions: 490000003 cycles: 379216437 heartbeat IPC: 1.50148 cumulative IPC: 1.29035 (Simulation time: 0 hr 33 min 39 sec) 
Heartbeat CPU 0 instructions: 500000002 cycles: 386638348 heartbeat IPC: 1.34736 cumulative IPC: 1.29145 (Simulation time: 0 hr 34 min 20 sec) 
Heartbeat CPU 0 instructions: 510000000 cycles: 407256465 heartbeat IPC: 0.48501 cumulative IPC: 1.2506 (Simulation time: 0 hr 35 min 58 sec) 
Heartbeat CPU 0 instructions: 520000002 cycles: 415115338 heartbeat IPC: 1.27245 cumulative IPC: 1.25101 (Simulation time: 0 hr 36 min 39 sec) 
Heartbeat CPU 0 instructions: 530000000 cycles: 422308321 heartbeat IPC: 1.39024 cumulative IPC: 1.25338 (Simulation time: 0 hr 37 min 19 sec) 
Heartbeat CPU 0 instructions: 540000002 cycles: 429357152 heartbeat IPC: 1.41868 cumulative IPC: 1.2561 (Simulation time: 0 hr 37 min 58 sec) 
Heartbeat CPU 0 instructions: 550000001 cycles: 439638336 heartbeat IPC: 0.972651 cumulative IPC: 1.24946 (Simulation time: 0 hr 38 min 40 sec) 
Heartbeat CPU 0 instructions: 560000003 cycles: 447123257 heartbeat IPC: 1.33602 cumulative IPC: 1.25091 (Simulation time: 0 hr 39 min 18 sec) 
Heartbeat CPU 0 instructions: 570000004 cycles: 454561665 heartbeat IPC: 1.34437 cumulative IPC: 1.25244 (Simulation time: 0 hr 39 min 57 sec) 
Heartbeat CPU 0 instructions: 580000004 cycles: 462008429 heartbeat IPC: 1.34287 cumulative IPC: 1.2539 (Simulation time: 0 hr 40 min 37 sec) 
Heartbeat CPU 0 instructions: 590000000 cycles: 469610580 heartbeat IPC: 1.31542 cumulative IPC: 1.2549 (Simulation time: 0 hr 41 min 15 sec) 
Heartbeat CPU 0 instructions: 600000000 cycles: 477630125 heartbeat IPC: 1.24695 cumulative IPC: 1.25477 (Simulation time: 0 hr 41 min 54 sec) 
Heartbeat CPU 0 instructions: 610000004 cycles: 485663250 heartbeat IPC: 1.24485 cumulative IPC: 1.2546 (Simulation time: 0 hr 42 min 34 sec) 
Heartbeat CPU 0 instructions: 620000001 cycles: 493064025 heartbeat IPC: 1.35121 cumulative IPC: 1.25605 (Simulation time: 0 hr 43 min 13 sec) 
Heartbeat CPU 0 instructions: 630000001 cycles: 500976568 heartbeat IPC: 1.26382 cumulative IPC: 1.25618 (Simulation time: 0 hr 43 min 53 sec) 
Heartbeat CPU 0 instructions: 640000003 cycles: 508792840 heartbeat IPC: 1.27938 cumulative IPC: 1.25653 (Simulation time: 0 hr 44 min 32 sec) 
Heartbeat CPU 0 instructions: 650000001 cycles: 515248444 heartbeat IPC: 1.54904 cumulative IPC: 1.2602 (Simulation time: 0 hr 45 min 7 sec) 
Heartbeat CPU 0 instructions: 660000003 cycles: 523005384 heartbeat IPC: 1.28917 cumulative IPC: 1.26063 (Simulation time: 0 hr 45 min 43 sec) 
Heartbeat CPU 0 instructions: 670000004 cycles: 530620091 heartbeat IPC: 1.31325 cumulative IPC: 1.26138 (Simulation time: 0 hr 46 min 19 sec) 
Heartbeat CPU 0 instructions: 680000002 cycles: 537926656 heartbeat IPC: 1.36863 cumulative IPC: 1.26284 (Simulation time: 0 hr 46 min 54 sec) 
Heartbeat CPU 0 instructions: 690000004 cycles: 546522132 heartbeat IPC: 1.1634 cumulative IPC: 1.26128 (Simulation time: 0 hr 47 min 31 sec) 
Heartbeat CPU 0 instructions: 700000000 cycles: 553912825 heartbeat IPC: 1.35305 cumulative IPC: 1.2625 (Simulation time: 0 hr 48 min 6 sec) 
Heartbeat CPU 0 instructions: 710000000 cycles: 561703330 heartbeat IPC: 1.28361 cumulative IPC: 1.26279 (Simulation time: 0 hr 48 min 42 sec) 
Heartbeat CPU 0 instructions: 720000002 cycles: 569549368 heartbeat IPC: 1.27453 cumulative IPC: 1.26296 (Simulation time: 0 hr 49 min 18 sec) 
Heartbeat CPU 0 instructions: 730000004 cycles: 576774991 heartbeat IPC: 1.38396 cumulative IPC: 1.26447 (Simulation time: 0 hr 49 min 54 sec) 
Heartbeat CPU 0 instructions: 740000002 cycles: 584435868 heartbeat IPC: 1.30533 cumulative IPC: 1.26501 (Simulation time: 0 hr 50 min 29 sec) 
Heartbeat CPU 0 instructions: 750000003 cycles: 590449957 heartbeat IPC: 1.66276 cumulative IPC: 1.26906 (Simulation time: 0 hr 51 min 2 sec) 
Heartbeat CPU 0 instructions: 760000000 cycles: 595874197 heartbeat IPC: 1.84358 cumulative IPC: 1.27429 (Simulation time: 0 hr 51 min 33 sec) 
Heartbeat CPU 0 instructions: 770000003 cycles: 601385184 heartbeat IPC: 1.81456 cumulative IPC: 1.27925 (Simulation time: 0 hr 52 min 5 sec) 
Heartbeat CPU 0 instructions: 780000004 cycles: 606705688 heartbeat IPC: 1.87952 cumulative IPC: 1.28451 (Simulation time: 0 hr 52 min 36 sec) 
Heartbeat CPU 0 instructions: 790000000 cycles: 612214990 heartbeat IPC: 1.81511 cumulative IPC: 1.28929 (Simulation time: 0 hr 53 min 8 sec) 
Heartbeat CPU 0 instructions: 800000002 cycles: 617706182 heartbeat IPC: 1.8211 cumulative IPC: 1.29402 (Simulation time: 0 hr 53 min 40 sec) 
Heartbeat CPU 0 instructions: 810000002 cycles: 623250616 heartbeat IPC: 1.80361 cumulative IPC: 1.29855 (Simulation time: 0 hr 54 min 11 sec) 
Heartbeat CPU 0 instructions: 820000000 cycles: 628679417 heartbeat IPC: 1.84203 cumulative IPC: 1.30325 (Simulation time: 0 hr 54 min 41 sec) 
Heartbeat CPU 0 instructions: 830000001 cycles: 634392365 heartbeat IPC: 1.75041 cumulative IPC: 1.30728 (Simulation time: 0 hr 55 min 13 sec) 
Heartbeat CPU 0 instructions: 840000002 cycles: 639696820 heartbeat IPC: 1.88521 cumulative IPC: 1.31207 (Simulation time: 0 hr 55 min 44 sec) 
Heartbeat CPU 0 instructions: 850000003 cycles: 645489355 heartbeat IPC: 1.72636 cumulative IPC: 1.31579 (Simulation time: 0 hr 56 min 16 sec) 
Heartbeat CPU 0 instructions: 860000004 cycles: 651009251 heartbeat IPC: 1.81163 cumulative IPC: 1.32 (Simulation time: 0 hr 56 min 47 sec) 
Heartbeat CPU 0 instructions: 870000000 cycles: 656633307 heartbeat IPC: 1.77808 cumulative IPC: 1.32392 (Simulation time: 0 hr 57 min 18 sec) 
Heartbeat CPU 0 instructions: 880000000 cycles: 662039166 heartbeat IPC: 1.84984 cumulative IPC: 1.32822 (Simulation time: 0 hr 57 min 49 sec) 
Heartbeat CPU 0 instructions: 890000004 cycles: 667415429 heartbeat IPC: 1.86003 cumulative IPC: 1.3325 (Simulation time: 0 hr 58 min 20 sec) 
Heartbeat CPU 0 instructions: 900000000 cycles: 672945881 heartbeat IPC: 1.80817 cumulative IPC: 1.33641 (Simulation time: 0 hr 58 min 52 sec) 
Heartbeat CPU 0 instructions: 910000004 cycles: 678423343 heartbeat IPC: 1.82566 cumulative IPC: 1.34037 (Simulation time: 0 hr 59 min 23 sec) 
Heartbeat CPU 0 instructions: 920000001 cycles: 683980818 heartbeat IPC: 1.79938 cumulative IPC: 1.3441 (Simulation time: 0 hr 59 min 54 sec) 
Heartbeat CPU 0 instructions: 930000001 cycles: 691421118 heartbeat IPC: 1.34403 cumulative IPC: 1.3441 (Simulation time: 1 hr 0 min 28 sec) 
Heartbeat CPU 0 instructions: 940000001 cycles: 699455601 heartbeat IPC: 1.24464 cumulative IPC: 1.34295 (Simulation time: 1 hr 1 min 4 sec) 
Heartbeat CPU 0 instructions: 950000000 cycles: 708577768 heartbeat IPC: 1.09623 cumulative IPC: 1.33978 (Simulation time: 1 hr 1 min 43 sec) 
Heartbeat CPU 0 instructions: 960000001 cycles: 714548341 heartbeat IPC: 1.67488 cumulative IPC: 1.34258 (Simulation time: 1 hr 2 min 14 sec) 
Heartbeat CPU 0 instructions: 970000002 cycles: 721695153 heartbeat IPC: 1.39923 cumulative IPC: 1.34314 (Simulation time: 1 hr 2 min 46 sec) 
Heartbeat CPU 0 instructions: 980000001 cycles: 731719123 heartbeat IPC: 0.997609 cumulative IPC: 1.3384 (Simulation time: 1 hr 3 min 23 sec) 
Heartbeat CPU 0 instructions: 990000000 cycles: 742189989 heartbeat IPC: 0.955031 cumulative IPC: 1.33299 (Simulation time: 1 hr 4 min 0 sec) 
Heartbeat CPU 0 instructions: 1000000000 cycles: 750578181 heartbeat IPC: 1.19215 cumulative IPC: 1.33142 (Simulation time: 1 hr 4 min 35 sec) 
Finished CPU 0 instructions: 1000000000 cycles: 751018198 cumulative IPC: 1.33153 (Simulation time: 1 hr 4 min 38 sec) 

ChampSim completed all CPUs

Region of Interest Statistics

CPU 0 cumulative IPC: 1.33153 instructions: 1000000000 cycles: 751018198
cpu0_DTLB TOTAL     ACCESS:  177265264  HIT:  172377349  MISS:    4887915
cpu0_DTLB LOAD      ACCESS:  138165537  HIT:  135886907  MISS:    2278630
cpu0_DTLB RFO       ACCESS:   39099727  HIT:   36490442  MISS:    2609285
cpu0_DTLB PREFETCH  ACCESS:          0  HIT:          0  MISS:          0
cpu0_DTLB WRITEBACK ACCESS:          0  HIT:          0  MISS:          0
cpu0_DTLB TRANSLATION ACCESS:          0  HIT:          0  MISS:          0
cpu0_DTLB PREFETCH  REQUESTED:          0  ISSUED:          0  USEFUL:          0  USELESS:          0
cpu0_DTLB AVERAGE MISS LATENCY: 10.666 cycles
cpu0_ITLB TOTAL     ACCESS:   82683486  HIT:   82683474  MISS:         12
cpu0_ITLB LOAD      ACCESS:   82683486  HIT:   82683474  MISS:         12
cpu0_ITLB RFO       ACCESS:          0  HIT:          0  MISS:          0
cpu0_ITLB PREFETCH  ACCESS:          0  HIT:          0  MISS:          0
cpu0_ITLB WRITEBACK ACCESS:          0  HIT:          0  MISS:          0
cpu0_ITLB TRANSLATION ACCESS:          0  HIT:          0  MISS:          0
cpu0_ITLB PREFETCH  REQUESTED:          0  ISSUED:          0  USEFUL:          0  USELESS:          0
cpu0_ITLB AVERAGE MISS LATENCY: 188.5 cycles
cpu0_L1I TOTAL     ACCESS:   19127644  HIT:   19126813  MISS:        831
cpu0_L1I LOAD      ACCESS:   19127644  HIT:   19126813  MISS:        831
cpu0_L1I RFO       ACCESS:          0  HIT:          0  MISS:          0
cpu0_L1I PREFETCH  ACCESS:          0  HIT:          0  MISS:          0
cpu0_L1I WRITEBACK ACCESS:          0  HIT:          0  MISS:          0
cpu0_L1I TRANSLATION ACCESS:          0  HIT:          0  MISS:          0
cpu0_L1I PREFETCH  REQUESTED:          0  ISSUED:          0  USEFUL:          0  USELESS:          0
cpu0_L1I AVERAGE MISS LATENCY: 149.387 cycles
cpu0_STLB TOTAL     ACCESS:    4887927  HIT:    4458516  MISS:     429411
cpu0_STLB LOAD      ACCESS:    2278642  HIT:    1932470  MISS:     346172
cpu0_STLB RFO       ACCESS:    2609285  HIT:    2526046  MISS:      83239
cpu0_STLB PREFETCH  ACCESS:          0  HIT:          0  MISS:          0
cpu0_STLB WRITEBACK ACCESS:          0  HIT:          0  MISS:          0
cpu0_STLB TRANSLATION ACCESS:          0  HIT:          0  MISS:          0
cpu0_STLB PREFETCH  REQUESTED:          0  ISSUED:          0  USEFUL:          0  USELESS:          0
cpu0_STLB AVERAGE MISS LATENCY: 18.8531 cycles
cpu0_L1D TOTAL     ACCESS:  333384673  HIT:  321959906  MISS:   11424767
cpu0_L1D LOAD      ACCESS:  135833572  HIT:  131342725  MISS:    4490847
cpu0_L1D RFO       ACCESS:   63722215  HIT:   61726185  MISS:    1996030
cpu0_L1D PREFETCH  ACCESS:  133400762  HIT:  128508829  MISS:    4891933
cpu0_L1D WRITEBACK ACCESS:          0  HIT:          0  MISS:          0
cpu0_L1D TRANSLATION ACCESS:     428124  HIT:     382167  MISS:      45957
cpu0_L1D PREFETCH  REQUESTED:  136010343  ISSUED:  134398957  USEFUL:    2611262  USELESS:    2342562
cpu0_L1D AVERAGE MISS LATENCY: 77.6336 cycles
cpu0_L2C TOTAL     ACCESS:   17526350  HIT:   13723110  MISS:    3803240
cpu0_L2C LOAD      ACCESS:    4436081  HIT:    2923058  MISS:    1513023
cpu0_L2C RFO       ACCESS:    1987871  HIT:    1459559  MISS:     528312
cpu0_L2C PREFETCH  ACCESS:    5535191  HIT:    3780789  MISS:    1754402
cpu0_L2C WRITEBACK ACCESS:    5521250  HIT:    5515040  MISS:       6210
cpu0_L2C TRANSLATION ACCESS:      45957  HIT:      44664  MISS:       1293
cpu0_L2C PREFETCH  REQUESTED:     771414  ISSUED:     595468  USEFUL:      27075  USELESS:      29211
cpu0_L2C AVERAGE MISS LATENCY: 201.05 cycles
LLC TOTAL     ACCESS:    5482745  HIT:    3730841  MISS:    1751904
LLC LOAD      ACCESS:    1512988  HIT:     857916  MISS:     655072
LLC RFO       ACCESS:     528300  HIT:     155257  MISS:     373043
LLC PREFETCH  ACCESS:    1755817  HIT:    1038626  MISS:     717191
LLC WRITEBACK ACCESS:    1684347  HIT:    1677853  MISS:       6494
LLC TRANSLATION ACCESS:       1293  HIT:       1189  MISS:        104
LLC PREFETCH  REQUESTED:          0  ISSUED:          0  USEFUL:          0  USELESS:          0
LLC AVERAGE MISS LATENCY: 378.771 cycles

DRAM Statistics
 CHANNEL 0
 RQ ROW_BUFFER_HIT:      91452  ROW_BUFFER_MISS:    1653781
 DBUS AVG_CONGESTED_CYCLE:    3.79736
 WQ ROW_BUFFER_HIT:     124841  ROW_BUFFER_MISS:     762711  FULL:          0


CPU 0 Branch Prediction Accuracy: 91.8231% MPKI: 12.3118 Average ROB Occupancy at Mispredict: 41.7418
Branch type MPKI
BRANCH_DIRECT_JUMP: 2.7e-05
BRANCH_INDIRECT: 0.754334
BRANCH_CONDITIONAL: 11.5553
BRANCH_DIRECT_CALL: 1.6e-05
BRANCH_INDIRECT_CALL: 0.00218
BRANCH_RETURN: 2.6e-05

