
*** ChampSim Multicore Out-of-Order Simulator ***

Warmup Instructions: 200000000
Simulation Instructions: 1000000000
Number of CPUs: 1
Off-chip DRAM Size: 4 GiB Channels: 1 Width: 64-bit Data Rate: 3200 MT/s

VirtualMemory physical capacity: 8588881920 num_ppages: 2096895
VirtualMemory page size: 4096 log2_page_size: 12

CPU 0 runs tracer/pin/traces/xs-64nuclidexl-2.champsim.xz
Basic BTB sets: 1024 ways: 8 indirect buffer size: 4096 RAS size: 64
cpu0_L1D next line prefetcher
cpu0_L2C IP-based stride prefetcher
WARNING: The extended signature CACHE::prefetch_line(ip, base_addr, pf_addr, fill_this_level, prefetch_metadata) is deprecated.
WARNING: Use CACHE::prefetch_line(pf_addr, fill_this_level, prefetch_metadata) instead.
Heartbeat CPU 0 instructions: 10000001 cycles: 2500071 heartbeat IPC: 3.99989 cumulative IPC: 3.99989 (Simulation time: 0 hr 0 min 20 sec) 
Heartbeat CPU 0 instructions: 20000001 cycles: 5000071 heartbeat IPC: 4 cumulative IPC: 3.99994 (Simulation time: 0 hr 0 min 40 sec) 
Heartbeat CPU 0 instructions: 30000001 cycles: 7500071 heartbeat IPC: 4 cumulative IPC: 3.99996 (Simulation time: 0 hr 1 min 1 sec) 
Heartbeat CPU 0 instructions: 40000001 cycles: 10000071 heartbeat IPC: 4 cumulative IPC: 3.99997 (Simulation time: 0 hr 1 min 21 sec) 
Heartbeat CPU 0 instructions: 50000001 cycles: 12500071 heartbeat IPC: 4 cumulative IPC: 3.99998 (Simulation time: 0 hr 1 min 41 sec) 
Heartbeat CPU 0 instructions: 60000001 cycles: 15000071 heartbeat IPC: 4 cumulative IPC: 3.99998 (Simulation time: 0 hr 2 min 1 sec) 
Heartbeat CPU 0 instructions: 70000001 cycles: 17500071 heartbeat IPC: 4 cumulative IPC: 3.99998 (Simulation time: 0 hr 2 min 21 sec) 
Heartbeat CPU 0 instructions: 80000001 cycles: 20000071 heartbeat IPC: 4 cumulative IPC: 3.99999 (Simulation time: 0 hr 2 min 41 sec) 
Heartbeat CPU 0 instructions: 90000001 cycles: 22500071 heartbeat IPC: 4 cumulative IPC: 3.99999 (Simulation time: 0 hr 3 min 2 sec) 
Heartbeat CPU 0 instructions: 100000001 cycles: 25000071 heartbeat IPC: 4 cumulative IPC: 3.99999 (Simulation time: 0 hr 3 min 23 sec) 
Heartbeat CPU 0 instructions: 110000001 cycles: 27500071 heartbeat IPC: 4 cumulative IPC: 3.99999 (Simulation time: 0 hr 3 min 43 sec) 
Heartbeat CPU 0 instructions: 120000001 cycles: 30000071 heartbeat IPC: 4 cumulative IPC: 3.99999 (Simulation time: 0 hr 4 min 3 sec) 
Heartbeat CPU 0 instructions: 130000001 cycles: 32500071 heartbeat IPC: 4 cumulative IPC: 3.99999 (Simulation time: 0 hr 4 min 23 sec) 
Heartbeat CPU 0 instructions: 140000001 cycles: 35000071 heartbeat IPC: 4 cumulative IPC: 3.99999 (Simulation time: 0 hr 4 min 43 sec) 
Heartbeat CPU 0 instructions: 150000001 cycles: 37500071 heartbeat IPC: 4 cumulative IPC: 3.99999 (Simulation time: 0 hr 5 min 3 sec) 
Heartbeat CPU 0 instructions: 160000001 cycles: 40000071 heartbeat IPC: 4 cumulative IPC: 3.99999 (Simulation time: 0 hr 5 min 23 sec) 
Heartbeat CPU 0 instructions: 170000001 cycles: 42500071 heartbeat IPC: 4 cumulative IPC: 3.99999 (Simulation time: 0 hr 5 min 44 sec) 
Heartbeat CPU 0 instructions: 180000001 cycles: 45000071 heartbeat IPC: 4 cumulative IPC: 3.99999 (Simulation time: 0 hr 6 min 4 sec) 
Heartbeat CPU 0 instructions: 190000001 cycles: 47500071 heartbeat IPC: 4 cumulative IPC: 3.99999 (Simulation time: 0 hr 6 min 24 sec) 
Heartbeat CPU 0 instructions: 200000001 cycles: 50000071 heartbeat IPC: 4 cumulative IPC: 3.99999 (Simulation time: 0 hr 6 min 44 sec) 

Warmup complete CPU 0 instructions: 200000001 cycles: 50000071 (Simulation time: 0 hr 6 min 44 sec) 

Heartbeat CPU 0 instructions: 210000000 cycles: 161807350 heartbeat IPC: 0.0894396 cumulative IPC: 0.0894396 (Simulation time: 0 hr 9 min 29 sec) 
Heartbeat CPU 0 instructions: 220000004 cycles: 273990605 heartbeat IPC: 0.0891399 cumulative IPC: 0.0892895 (Simulation time: 0 hr 12 min 15 sec) 
Heartbeat CPU 0 instructions: 230000003 cycles: 385412468 heartbeat IPC: 0.089749 cumulative IPC: 0.0894421 (Simulation time: 0 hr 15 min 1 sec) 
Heartbeat CPU 0 instructions: 240000000 cycles: 497027765 heartbeat IPC: 0.0895934 cumulative IPC: 0.0894799 (Simulation time: 0 hr 17 min 45 sec) 
Heartbeat CPU 0 instructions: 250000002 cycles: 607358639 heartbeat IPC: 0.0906365 cumulative IPC: 0.0897089 (Simulation time: 0 hr 20 min 29 sec) 
Heartbeat CPU 0 instructions: 260000000 cycles: 720113800 heartbeat IPC: 0.0886877 cumulative IPC: 0.089537 (Simulation time: 0 hr 23 min 15 sec) 
Heartbeat CPU 0 instructions: 270000000 cycles: 830795829 heartbeat IPC: 0.0903489 cumulative IPC: 0.0896521 (Simulation time: 0 hr 26 min 0 sec) 
Heartbeat CPU 0 instructions: 280000003 cycles: 941880736 heartbeat IPC: 0.0900213 cumulative IPC: 0.0896981 (Simulation time: 0 hr 28 min 44 sec) 
Heartbeat CPU 0 instructions: 290000000 cycles: 1052508495 heartbeat IPC: 0.0903932 cumulative IPC: 0.0897748 (Simulation time: 0 hr 31 min 28 sec) 
Heartbeat CPU 0 instructions: 300000000 cycles: 1161775313 heartbeat IPC: 0.0915191 cumulative IPC: 0.0899462 (Simulation time: 0 hr 34 min 9 sec) 
Heartbeat CPU 0 instructions: 310000000 cycles: 1272855811 heartbeat IPC: 0.0900248 cumulative IPC: 0.0899534 (Simulation time: 0 hr 36 min 53 sec) 
Heartbeat CPU 0 instructions: 320000001 cycles: 1383591599 heartbeat IPC: 0.0903051 cumulative IPC: 0.0899826 (Simulation time: 0 hr 39 min 38 sec) 
Heartbeat CPU 0 instructions: 330000000 cycles: 1493806677 heartbeat IPC: 0.0907317 cumulative IPC: 0.0900398 (Simulation time: 0 hr 42 min 21 sec) 
Heartbeat CPU 0 instructions: 340000000 cycles: 1604660328 heartbeat IPC: 0.090209 cumulative IPC: 0.0900518 (Simulation time: 0 hr 45 min 5 sec) 
Heartbeat CPU 0 instructions: 350000000 cycles: 1714134907 heartbeat IPC: 0.0913454 cumulative IPC: 0.0901369 (Simulation time: 0 hr 47 min 48 sec) 
Heartbeat CPU 0 instructions: 360000003 cycles: 1826989763 heartbeat IPC: 0.0886094 cumulative IPC: 0.0900399 (Simulation time: 0 hr 50 min 38 sec) 
Heartbeat CPU 0 instructions: 370000003 cycles: 1937705329 heartbeat IPC: 0.0903215 cumulative IPC: 0.0900564 (Simulation time: 0 hr 53 min 22 sec) 
Heartbeat CPU 0 instructions: 380000000 cycles: 2048833181 heartbeat IPC: 0.0899864 cumulative IPC: 0.0900525 (Simulation time: 0 hr 56 min 7 sec) 
Heartbeat CPU 0 instructions: 390000000 cycles: 2159836253 heartbeat IPC: 0.0900876 cumulative IPC: 0.0900544 (Simulation time: 0 hr 58 min 51 sec) 
Heartbeat CPU 0 instructions: 400000000 cycles: 2270798322 heartbeat IPC: 0.0901209 cumulative IPC: 0.0900577 (Simulation time: 1 hr 1 min 36 sec) 
Heartbeat CPU 0 instructions: 410000002 cycles: 2382094318 heartbeat IPC: 0.0898505 cumulative IPC: 0.0900478 (Simulation time: 1 hr 4 min 20 sec) 
Heartbeat CPU 0 instructions: 420000004 cycles: 2493247507 heartbeat IPC: 0.0899659 cumulative IPC: 0.0900441 (Simulation time: 1 hr 7 min 5 sec) 
Heartbeat CPU 0 instructions: 430000000 cycles: 2605399524 heartbeat IPC: 0.0891647 cumulative IPC: 0.0900055 (Simulation time: 1 hr 9 min 51 sec) 
Heartbeat CPU 0 instructions: 440000002 cycles: 2716709817 heartbeat IPC: 0.089839 cumulative IPC: 0.0899985 (Simulation time: 1 hr 12 min 36 sec) 
Heartbeat CPU 0 instructions: 450000000 cycles: 2826518180 heartbeat IPC: 0.0910677 cumulative IPC: 0.0900408 (Simulation time: 1 hr 15 min 20 sec) 
Heartbeat CPU 0 instructions: 460000002 cycles: 2938837626 heartbeat IPC: 0.0890318 cumulative IPC: 0.0900016 (Simulation time: 1 hr 18 min 6 sec) 
Heartbeat CPU 0 instructions: 470000001 cycles: 3049137333 heartbeat IPC: 0.0906621 cumulative IPC: 0.0900259 (Simulation time: 1 hr 20 min 51 sec) 
Heartbeat CPU 0 instructions: 480000001 cycles: 3158868058 heartbeat IPC: 0.0911322 cumulative IPC: 0.0900649 (Simulation time: 1 hr 23 min 34 sec) 
Heartbeat CPU 0 instructions: 490000004 cycles: 3267219082 heartbeat IPC: 0.0922927 cumulative IPC: 0.09014 (Simulation time: 1 hr 26 min 16 sec) 
Heartbeat CPU 0 instructions: 500000000 cycles: 3376297607 heartbeat IPC: 0.091677 cumulative IPC: 0.0901904 (Simulation time: 1 hr 28 min 59 sec) 
Heartbeat CPU 0 instructions: 510000000 cycles: 3488002160 heartbeat IPC: 0.0895219 cumulative IPC: 0.0901686 (Simulation time: 1 hr 31 min 45 sec) 
Heartbeat CPU 0 instructions: 520000004 cycles: 3599608226 heartbeat IPC: 0.0896009 cumulative IPC: 0.0901508 (Simulation time: 1 hr 34 min 30 sec) 
Heartbeat CPU 0 instructions: 530000001 cycles: 3710056929 heartbeat IPC: 0.0905397 cumulative IPC: 0.0901625 (Simulation time: 1 hr 37 min 15 sec) 
Heartbeat CPU 0 instructions: 540000000 cycles: 3820525813 heartbeat IPC: 0.0905232 cumulative IPC: 0.0901731 (Simulation time: 1 hr 40 min 1 sec) 
Heartbeat CPU 0 instructions: 550000000 cycles: 3932997906 heartbeat IPC: 0.0889109 cumulative IPC: 0.0901365 (Simulation time: 1 hr 42 min 49 sec) 
Heartbeat CPU 0 instructions: 560000002 cycles: 4043146878 heartbeat IPC: 0.0907862 cumulative IPC: 0.0901545 (Simulation time: 1 hr 45 min 34 sec) 
Heartbeat CPU 0 instructions: 570000000 cycles: 4154118407 heartbeat IPC: 0.0901132 cumulative IPC: 0.0901533 (Simulation time: 1 hr 48 min 21 sec) 
Heartbeat CPU 0 instructions: 580000000 cycles: 4266756352 heartbeat IPC: 0.08878 cumulative IPC: 0.0901167 (Simulation time: 1 hr 51 min 10 sec) 
Heartbeat CPU 0 instructions: 590000004 cycles: 4377533367 heartbeat IPC: 0.0902715 cumulative IPC: 0.0901206 (Simulation time: 1 hr 54 min 2 sec) 
Heartbeat CPU 0 instructions: 600000001 cycles: 4488591334 heartbeat IPC: 0.090043 cumulative IPC: 0.0901187 (Simulation time: 1 hr 56 min 56 sec) 
Heartbeat CPU 0 instructions: 610000000 cycles: 4598688529 heartbeat IPC: 0.0908288 cumulative IPC: 0.0901359 (Simulation time: 2 hr 0 min 34 sec) 
Heartbeat CPU 0 instructions: 620000000 cycles: 4709959255 heartbeat IPC: 0.0898709 cumulative IPC: 0.0901295 (Simulation time: 2 hr 4 min 17 sec) 
Heartbeat CPU 0 instructions: 630000001 cycles: 4821932494 heartbeat IPC: 0.0893071 cumulative IPC: 0.0901102 (Simulation time: 2 hr 7 min 32 sec) 
Heartbeat CPU 0 instructions: 640000000 cycles: 4934288789 heartbeat IPC: 0.0890026 cumulative IPC: 0.0900848 (Simulation time: 2 hr 11 min 10 sec) 
Heartbeat CPU 0 instructions: 650000003 cycles: 5043877077 heartbeat IPC: 0.0912507 cumulative IPC: 0.0901103 (Simulation time: 2 hr 14 min 56 sec) 
Heartbeat CPU 0 instructions: 660000004 cycles: 5153570107 heartbeat IPC: 0.0911635 cumulative IPC: 0.090133 (Simulation time: 2 hr 18 min 47 sec) 
Heartbeat CPU 0 instructions: 670000000 cycles: 5264274079 heartbeat IPC: 0.090331 cumulative IPC: 0.0901372 (Simulation time: 2 hr 22 min 39 sec) 
Heartbeat CPU 0 instructions: 680000000 cycles: 5373820740 heartbeat IPC: 0.0912853 cumulative IPC: 0.0901608 (Simulation time: 2 hr 26 min 41 sec) 
Heartbeat CPU 0 instructions: 690000000 cycles: 5484676160 heartbeat IPC: 0.0902076 cumulative IPC: 0.0901618 (Simulation time: 2 hr 30 min 45 sec) 
Heartbeat CPU 0 instructions: 700000003 cycles: 5595527685 heartbeat IPC: 0.0902108 cumulative IPC: 0.0901627 (Simulation time: 2 hr 34 min 39 sec) 
Heartbeat CPU 0 instructions: 710000002 cycles: 5706126805 heartbeat IPC: 0.0904166 cumulative IPC: 0.0901677 (Simulation time: 2 hr 38 min 28 sec) 
Heartbeat CPU 0 instructions: 720000000 cycles: 5815930148 heartbeat IPC: 0.0910719 cumulative IPC: 0.0901849 (Simulation time: 2 hr 42 min 28 sec) 
Heartbeat CPU 0 instructions: 730000000 cycles: 5927370912 heartbeat IPC: 0.0897338 cumulative IPC: 0.0901764 (Simulation time: 2 hr 46 min 25 sec) 
Heartbeat CPU 0 instructions: 740000003 cycles: 6038557712 heartbeat IPC: 0.0899388 cumulative IPC: 0.090172 (Simulation time: 2 hr 50 min 34 sec) 
Heartbeat CPU 0 instructions: 750000004 cycles: 6147910271 heartbeat IPC: 0.0914473 cumulative IPC: 0.0901948 (Simulation time: 2 hr 54 min 41 sec) 
Heartbeat CPU 0 instructions: 760000000 cycles: 6259002427 heartbeat IPC: 0.0900153 cumulative IPC: 0.0901916 (Simulation time: 2 hr 58 min 27 sec) 
Heartbeat CPU 0 instructions: 770000002 cycles: 6370532033 heartbeat IPC: 0.0896623 cumulative IPC: 0.0901823 (Simulation time: 3 hr 1 min 58 sec) 
Heartbeat CPU 0 instructions: 780000000 cycles: 6481081048 heartbeat IPC: 0.0904576 cumulative IPC: 0.090187 (Simulation time: 3 hr 5 min 35 sec) 
Heartbeat CPU 0 instructions: 790000001 cycles: 6592889877 heartbeat IPC: 0.0894384 cumulative IPC: 0.0901742 (Simulation time: 3 hr 9 min 17 sec) 
Heartbeat CPU 0 instructions: 800000003 cycles: 6704151841 heartbeat IPC: 0.089878 cumulative IPC: 0.0901693 (Simulation time: 3 hr 12 min 59 sec) 
Heartbeat CPU 0 instructions: 810000000 cycles: 6816678463 heartbeat IPC: 0.0888678 cumulative IPC: 0.0901476 (Simulation time: 3 hr 16 min 8 sec) 
Heartbeat CPU 0 instructions: 820000000 cycles: 6928706562 heartbeat IPC: 0.0892633 cumulative IPC: 0.0901332 (Simulation time: 3 hr 19 min 15 sec) 
Heartbeat CPU 0 instructions: 830000001 cycles: 7039665787 heartbeat IPC: 0.0901232 cumulative IPC: 0.0901331 (Simulation time: 3 hr 22 min 22 sec) 
Heartbeat CPU 0 instructions: 840000003 cycles: 7150775402 heartbeat IPC: 0.0900012 cumulative IPC: 0.090131 (Simulation time: 3 hr 25 min 33 sec) 
Heartbeat CPU 0 instructions: 850000001 cycles: 7261799991 heartbeat IPC: 0.0900701 cumulative IPC: 0.0901301 (Simulation time: 3 hr 28 min 43 sec) 
Heartbeat CPU 0 instructions: 860000002 cycles: 7373023531 heartbeat IPC: 0.089909 cumulative IPC: 0.0901267 (Simulation time: 3 hr 32 min 1 sec) 
Heartbeat CPU 0 instructions: 870000000 cycles: 7481953379 heartbeat IPC: 0.0918022 cumulative IPC: 0.0901513 (Simulation time: 3 hr 35 min 9 sec) 
Heartbeat CPU 0 instructions: 880000002 cycles: 7592928679 heartbeat IPC: 0.0901102 cumulative IPC: 0.0901507 (Simulation time: 3 hr 38 min 18 sec) 
Heartbeat CPU 0 instructions: 890000004 cycles: 7700926754 heartbeat IPC: 0.0925943 cumulative IPC: 0.0901852 (Simulation time: 3 hr 41 min 26 sec) 
Heartbeat CPU 0 instructions: 900000000 cycles: 7810779231 heartbeat IPC: 0.0910311 cumulative IPC: 0.0901971 (Simulation time: 3 hr 44 min 30 sec) 
Heartbeat CPU 0 instructions: 910000001 cycles: 7921206844 heartbeat IPC: 0.0905571 cumulative IPC: 0.0902022 (Simulation time: 3 hr 47 min 39 sec) 
Heartbeat CPU 0 instructions: 920000002 cycles: 8033045667 heartbeat IPC: 0.0894144 cumulative IPC: 0.0901911 (Simulation time: 3 hr 51 min 0 sec) 
Heartbeat CPU 0 instructions: 930000000 cycles: 8143912914 heartbeat IPC: 0.0901979 cumulative IPC: 0.0901912 (Simulation time: 3 hr 54 min 18 sec) 
Heartbeat CPU 0 instructions: 940000001 cycles: 8254334981 heartbeat IPC: 0.0905616 cumulative IPC: 0.0901962 (Simulation time: 3 hr 57 min 17 sec) 
Heartbeat CPU 0 instructions: 950000000 cycles: 8364701814 heartbeat IPC: 0.0906069 cumulative IPC: 0.0902017 (Simulation time: 4 hr 0 min 4 sec) 
Heartbeat CPU 0 instructions: 960000002 cycles: 8475309533 heartbeat IPC: 0.0904096 cumulative IPC: 0.0902044 (Simulation time: 4 hr 2 min 53 sec) 
Heartbeat CPU 0 instructions: 970000000 cycles: 8586305942 heartbeat IPC: 0.090093 cumulative IPC: 0.0902029 (Simulation time: 4 hr 5 min 41 sec) 
Heartbeat CPU 0 instructions: 980000000 cycles: 8696569552 heartbeat IPC: 0.0906918 cumulative IPC: 0.0902092 (Simulation time: 4 hr 8 min 29 sec) 
Heartbeat CPU 0 instructions: 990000002 cycles: 8806095109 heartbeat IPC: 0.0913029 cumulative IPC: 0.0902229 (Simulation time: 4 hr 11 min 15 sec) 
Heartbeat CPU 0 instructions: 1000000001 cycles: 8917912802 heartbeat IPC: 0.0894313 cumulative IPC: 0.0902129 (Simulation time: 4 hr 14 min 5 sec) 
Heartbeat CPU 0 instructions: 1010000000 cycles: 9029015585 heartbeat IPC: 0.0900067 cumulative IPC: 0.0902103 (Simulation time: 4 hr 16 min 55 sec) 
Heartbeat CPU 0 instructions: 1020000000 cycles: 9139177054 heartbeat IPC: 0.0907758 cumulative IPC: 0.0902172 (Simulation time: 4 hr 19 min 45 sec) 
Heartbeat CPU 0 instructions: 1030000003 cycles: 9249890070 heartbeat IPC: 0.0903236 cumulative IPC: 0.0902185 (Simulation time: 4 hr 22 min 35 sec) 
Heartbeat CPU 0 instructions: 1040000000 cycles: 9359944366 heartbeat IPC: 0.0908642 cumulative IPC: 0.0902261 (Simulation time: 4 hr 25 min 23 sec) 
Heartbeat CPU 0 instructions: 1050000000 cycles: 9471080542 heartbeat IPC: 0.0899797 cumulative IPC: 0.0902232 (Simulation time: 4 hr 28 min 13 sec) 
Heartbeat CPU 0 instructions: 1060000003 cycles: 9581761712 heartbeat IPC: 0.0903496 cumulative IPC: 0.0902247 (Simulation time: 4 hr 31 min 2 sec) 
Heartbeat CPU 0 instructions: 1070000002 cycles: 9694454851 heartbeat IPC: 0.0887365 cumulative IPC: 0.0902073 (Simulation time: 4 hr 33 min 51 sec) 
Heartbeat CPU 0 instructions: 1080000001 cycles: 9804577766 heartbeat IPC: 0.0908076 cumulative IPC: 0.0902141 (Simulation time: 4 hr 36 min 43 sec) 
Heartbeat CPU 0 instructions: 1090000002 cycles: 9915619182 heartbeat IPC: 0.0900565 cumulative IPC: 0.0902123 (Simulation time: 4 hr 39 min 29 sec) 
Heartbeat CPU 0 instructions: 1100000000 cycles: 10026679937 heartbeat IPC: 0.0900408 cumulative IPC: 0.0902104 (Simulation time: 4 hr 42 min 34 sec) 
Heartbeat CPU 0 instructions: 1110000001 cycles: 10136851991 heartbeat IPC: 0.0907671 cumulative IPC: 0.0902165 (Simulation time: 4 hr 45 min 20 sec) 
Heartbeat CPU 0 instructions: 1120000000 cycles: 10245048276 heartbeat IPC: 0.0924246 cumulative IPC: 0.0902399 (Simulation time: 4 hr 48 min 3 sec) 
Heartbeat CPU 0 instructions: 1130000001 cycles: 10355384916 heartbeat IPC: 0.0906317 cumulative IPC: 0.0902441 (Simulation time: 4 hr 50 min 49 sec) 
Heartbeat CPU 0 instructions: 1140000001 cycles: 10466880424 heartbeat IPC: 0.0896897 cumulative IPC: 0.0902381 (Simulation time: 4 hr 53 min 37 sec) 
Heartbeat CPU 0 instructions: 1150000003 cycles: 10578033063 heartbeat IPC: 0.0899664 cumulative IPC: 0.0902353 (Simulation time: 4 hr 56 min 25 sec) 
Heartbeat CPU 0 instructions: 1160000002 cycles: 10688440813 heartbeat IPC: 0.0905733 cumulative IPC: 0.0902388 (Simulation time: 4 hr 59 min 13 sec) 
Heartbeat CPU 0 instructions: 1170000001 cycles: 10799723258 heartbeat IPC: 0.0898614 cumulative IPC: 0.0902349 (Simulation time: 5 hr 2 min 0 sec) 
Heartbeat CPU 0 instructions: 1180000004 cycles: 10911003607 heartbeat IPC: 0.0898632 cumulative IPC: 0.0902311 (Simulation time: 5 hr 4 min 48 sec) 
Heartbeat CPU 0 instructions: 1190000000 cycles: 11022110492 heartbeat IPC: 0.0900034 cumulative IPC: 0.0902288 (Simulation time: 5 hr 7 min 35 sec) 
*** Reached end of trace: tracer/pin/traces/xs-64nuclidexl-2.champsim.xz
Heartbeat CPU 0 instructions: 1200000000 cycles: 11132703693 heartbeat IPC: 0.0904215 cumulative IPC: 0.0902307 (Simulation time: 5 hr 10 min 22 sec) 
Finished CPU 0 instructions: 1000000000 cycles: 11082703623 cumulative IPC: 0.0902307 (Simulation time: 5 hr 10 min 22 sec) 

ChampSim completed all CPUs

Region of Interest Statistics

CPU 0 cumulative IPC: 0.0902307 instructions: 1000000000 cycles: 11082703623
cpu0_DTLB TOTAL     ACCESS:   86899109  HIT:   47538109  MISS:   39361000
cpu0_DTLB LOAD      ACCESS:   82377507  HIT:   43016596  MISS:   39360911
cpu0_DTLB RFO       ACCESS:    4521602  HIT:    4521513  MISS:         89
cpu0_DTLB PREFETCH  ACCESS:          0  HIT:          0  MISS:          0
cpu0_DTLB WRITEBACK ACCESS:          0  HIT:          0  MISS:          0
cpu0_DTLB TRANSLATION ACCESS:          0  HIT:          0  MISS:          0
cpu0_DTLB PREFETCH  REQUESTED:          0  ISSUED:          0  USEFUL:          0  USELESS:          0
cpu0_DTLB AVERAGE MISS LATENCY: 21.1047 cycles
cpu0_ITLB TOTAL     ACCESS:  121086560  HIT:  121086560  MISS:          0
cpu0_ITLB LOAD      ACCESS:  121086560  HIT:  121086560  MISS:          0
cpu0_ITLB RFO       ACCESS:          0  HIT:          0  MISS:          0
cpu0_ITLB PREFETCH  ACCESS:          0  HIT:          0  MISS:          0
cpu0_ITLB WRITEBACK ACCESS:          0  HIT:          0  MISS:          0
cpu0_ITLB TRANSLATION ACCESS:          0  HIT:          0  MISS:          0
cpu0_ITLB PREFETCH  REQUESTED:          0  ISSUED:          0  USEFUL:          0  USELESS:          0
cpu0_ITLB AVERAGE MISS LATENCY: -nan cycles
cpu0_STLB TOTAL     ACCESS:   39361000  HIT:    1432647  MISS:   37928353
cpu0_STLB LOAD      ACCESS:   39360911  HIT:    1432644  MISS:   37928267
cpu0_STLB RFO       ACCESS:         89  HIT:          3  MISS:         86
cpu0_STLB PREFETCH  ACCESS:          0  HIT:          0  MISS:          0
cpu0_STLB WRITEBACK ACCESS:          0  HIT:          0  MISS:          0
cpu0_STLB TRANSLATION ACCESS:          0  HIT:          0  MISS:          0
cpu0_STLB PREFETCH  REQUESTED:          0  ISSUED:          0  USEFUL:          0  USELESS:          0
cpu0_STLB AVERAGE MISS LATENCY: 12.5618 cycles
cpu0_L1D TOTAL     ACCESS:  199659745  HIT:   82487993  MISS:  117171752
cpu0_L1D LOAD      ACCESS:   83302727  HIT:   24699986  MISS:   58602741
cpu0_L1D RFO       ACCESS:   12373737  HIT:   12344820  MISS:      28917
cpu0_L1D PREFETCH  ACCESS:   80032565  HIT:   23965225  MISS:   56067340
cpu0_L1D WRITEBACK ACCESS:          0  HIT:          0  MISS:          0
cpu0_L1D TRANSLATION ACCESS:   23950716  HIT:   21477962  MISS:    2472754
cpu0_L1D PREFETCH  REQUESTED:   83344588  ISSUED:   83313157  USEFUL:    5333285  USELESS:   51239195
cpu0_L1D AVERAGE MISS LATENCY: 379.102 cycles
cpu0_L2C TOTAL     ACCESS:  118807271  HIT:    3230428  MISS:  115576843
cpu0_L2C LOAD      ACCESS:   58097604  HIT:    1329722  MISS:   56767882
cpu0_L2C RFO       ACCESS:      28911  HIT:      20204  MISS:       8707
cpu0_L2C PREFETCH  ACCESS:   58061810  HIT:    1337219  MISS:   56724591
cpu0_L2C WRITEBACK ACCESS:     146192  HIT:     146082  MISS:        110
cpu0_L2C TRANSLATION ACCESS:    2472754  HIT:     397201  MISS:    2075553
cpu0_L2C PREFETCH  REQUESTED:    1600685  ISSUED:    1600685  USEFUL:        149  USELESS:    1488989
cpu0_L2C AVERAGE MISS LATENCY: 379.27 cycles
LLC TOTAL     ACCESS:  115732831  HIT:   20862220  MISS:   94870611
LLC LOAD      ACCESS:   56767882  HIT:    9092292  MISS:   47675590
LLC RFO       ACCESS:       8707  HIT:       8682  MISS:         25
LLC PREFETCH  ACCESS:   56835949  HIT:    9660140  MISS:   47175809
LLC WRITEBACK ACCESS:      44740  HIT:      44740  MISS:          0
LLC TRANSLATION ACCESS:    2075553  HIT:    2056366  MISS:      19187
LLC PREFETCH  REQUESTED:          0  ISSUED:          0  USEFUL:          0  USELESS:          0
LLC AVERAGE MISS LATENCY: 429.998 cycles

DRAM Statistics
 CHANNEL 0
 RQ ROW_BUFFER_HIT:   11708437  ROW_BUFFER_MISS:   83162148
 DBUS AVG_CONGESTED_CYCLE:    3.86121
 WQ ROW_BUFFER_HIT:        204  ROW_BUFFER_MISS:         38  FULL:          0


CPU 0 Branch Prediction Accuracy: 82.1991% MPKI: 30.1882 Average ROB Occupancy at Mispredict: 17.8556
Branch type MPKI
BRANCH_DIRECT_JUMP: 0
BRANCH_INDIRECT: 0
BRANCH_CONDITIONAL: 30.1882
BRANCH_DIRECT_CALL: 0
BRANCH_INDIRECT_CALL: 0
BRANCH_RETURN: 0

