
*** ChampSim Multicore Out-of-Order Simulator ***

Warmup Instructions: 1000000
Simulation Instructions: 1000000000
Number of CPUs: 1
Off-chip DRAM Size: 4 GiB Channels: 1 Width: 64-bit Data Rate: 3200 MT/s

VirtualMemory physical capacity: 8588881920 num_ppages: 2096895
VirtualMemory page size: 4096 log2_page_size: 12

CPU 0 runs tracer/pin/traces/spec2k17/654.roms_s-842B.champsimtrace.xz
Basic BTB sets: 1024 ways: 8 indirect buffer size: 4096 RAS size: 64
cpu0_L1D next line prefetcher
cpu0_L2C IP-based stride prefetcher
WARNING: The extended signature CACHE::prefetch_line(ip, base_addr, pf_addr, fill_this_level, prefetch_metadata) is deprecated.
WARNING: Use CACHE::prefetch_line(pf_addr, fill_this_level, prefetch_metadata) instead.

Warmup complete CPU 0 instructions: 1000004 cycles: 251084 (Simulation time: 0 hr 0 min 2 sec) 

Heartbeat CPU 0 instructions: 10000000 cycles: 6170809 heartbeat IPC: 1.62053 cumulative IPC: 1.52034 (Simulation time: 0 hr 0 min 34 sec) 
Heartbeat CPU 0 instructions: 20000002 cycles: 12752966 heartbeat IPC: 1.51926 cumulative IPC: 1.51977 (Simulation time: 0 hr 1 min 12 sec) 
Heartbeat CPU 0 instructions: 30000000 cycles: 19331363 heartbeat IPC: 1.52013 cumulative IPC: 1.51989 (Simulation time: 0 hr 1 min 49 sec) 
Heartbeat CPU 0 instructions: 40000004 cycles: 25919482 heartbeat IPC: 1.51788 cumulative IPC: 1.51938 (Simulation time: 0 hr 2 min 27 sec) 
Heartbeat CPU 0 instructions: 50000000 cycles: 32536534 heartbeat IPC: 1.51125 cumulative IPC: 1.51771 (Simulation time: 0 hr 3 min 9 sec) 
Heartbeat CPU 0 instructions: 60000003 cycles: 39125359 heartbeat IPC: 1.51772 cumulative IPC: 1.51771 (Simulation time: 0 hr 3 min 47 sec) 
Heartbeat CPU 0 instructions: 70000000 cycles: 45710599 heartbeat IPC: 1.51855 cumulative IPC: 1.51783 (Simulation time: 0 hr 4 min 24 sec) 
Heartbeat CPU 0 instructions: 80000001 cycles: 52294489 heartbeat IPC: 1.51886 cumulative IPC: 1.51796 (Simulation time: 0 hr 5 min 1 sec) 
Heartbeat CPU 0 instructions: 90000002 cycles: 58875408 heartbeat IPC: 1.51954 cumulative IPC: 1.51814 (Simulation time: 0 hr 5 min 38 sec) 
Heartbeat CPU 0 instructions: 100000000 cycles: 65450026 heartbeat IPC: 1.521 cumulative IPC: 1.51843 (Simulation time: 0 hr 6 min 14 sec) 
Heartbeat CPU 0 instructions: 110000002 cycles: 72027444 heartbeat IPC: 1.52035 cumulative IPC: 1.51861 (Simulation time: 0 hr 6 min 55 sec) 
Heartbeat CPU 0 instructions: 120000003 cycles: 78606660 heartbeat IPC: 1.51994 cumulative IPC: 1.51872 (Simulation time: 0 hr 7 min 33 sec) 
Heartbeat CPU 0 instructions: 130000003 cycles: 85180807 heartbeat IPC: 1.52111 cumulative IPC: 1.5189 (Simulation time: 0 hr 8 min 7 sec) 
Heartbeat CPU 0 instructions: 140000000 cycles: 91758630 heartbeat IPC: 1.52026 cumulative IPC: 1.519 (Simulation time: 0 hr 8 min 45 sec) 
Heartbeat CPU 0 instructions: 150000001 cycles: 98337274 heartbeat IPC: 1.52007 cumulative IPC: 1.51907 (Simulation time: 0 hr 9 min 24 sec) 
Heartbeat CPU 0 instructions: 160000003 cycles: 104914629 heartbeat IPC: 1.52037 cumulative IPC: 1.51915 (Simulation time: 0 hr 10 min 1 sec) 
Heartbeat CPU 0 instructions: 170000000 cycles: 111496753 heartbeat IPC: 1.51927 cumulative IPC: 1.51916 (Simulation time: 0 hr 10 min 38 sec) 
Heartbeat CPU 0 instructions: 180000000 cycles: 118088450 heartbeat IPC: 1.51706 cumulative IPC: 1.51904 (Simulation time: 0 hr 11 min 16 sec) 
Heartbeat CPU 0 instructions: 190000002 cycles: 124675809 heartbeat IPC: 1.51806 cumulative IPC: 1.51899 (Simulation time: 0 hr 11 min 54 sec) 
Heartbeat CPU 0 instructions: 200000000 cycles: 131266784 heartbeat IPC: 1.51723 cumulative IPC: 1.5189 (Simulation time: 0 hr 12 min 30 sec) 
Heartbeat CPU 0 instructions: 210000000 cycles: 137844858 heartbeat IPC: 1.5202 cumulative IPC: 1.51896 (Simulation time: 0 hr 13 min 5 sec) 
Heartbeat CPU 0 instructions: 220000000 cycles: 144447540 heartbeat IPC: 1.51454 cumulative IPC: 1.51876 (Simulation time: 0 hr 13 min 42 sec) 
Heartbeat CPU 0 instructions: 230000001 cycles: 151023377 heartbeat IPC: 1.52072 cumulative IPC: 1.51885 (Simulation time: 0 hr 14 min 15 sec) 
Heartbeat CPU 0 instructions: 240000000 cycles: 157619379 heartbeat IPC: 1.51607 cumulative IPC: 1.51873 (Simulation time: 0 hr 14 min 52 sec) 
Heartbeat CPU 0 instructions: 250000001 cycles: 164221097 heartbeat IPC: 1.51476 cumulative IPC: 1.51857 (Simulation time: 0 hr 15 min 30 sec) 
Heartbeat CPU 0 instructions: 260000000 cycles: 170807200 heartbeat IPC: 1.51835 cumulative IPC: 1.51856 (Simulation time: 0 hr 16 min 5 sec) 
Heartbeat CPU 0 instructions: 270000003 cycles: 177407024 heartbeat IPC: 1.51519 cumulative IPC: 1.51844 (Simulation time: 0 hr 16 min 42 sec) 
Heartbeat CPU 0 instructions: 280000000 cycles: 183997505 heartbeat IPC: 1.51734 cumulative IPC: 1.5184 (Simulation time: 0 hr 17 min 17 sec) 
Heartbeat CPU 0 instructions: 290000000 cycles: 190574777 heartbeat IPC: 1.52039 cumulative IPC: 1.51847 (Simulation time: 0 hr 17 min 50 sec) 
Heartbeat CPU 0 instructions: 300000002 cycles: 197158585 heartbeat IPC: 1.51888 cumulative IPC: 1.51848 (Simulation time: 0 hr 18 min 23 sec) 
Heartbeat CPU 0 instructions: 310000000 cycles: 203733469 heartbeat IPC: 1.52094 cumulative IPC: 1.51856 (Simulation time: 0 hr 18 min 57 sec) 
Heartbeat CPU 0 instructions: 320000003 cycles: 210308367 heartbeat IPC: 1.52094 cumulative IPC: 1.51863 (Simulation time: 0 hr 19 min 30 sec) 
Heartbeat CPU 0 instructions: 330000002 cycles: 216883399 heartbeat IPC: 1.52091 cumulative IPC: 1.5187 (Simulation time: 0 hr 20 min 3 sec) 
Heartbeat CPU 0 instructions: 340000000 cycles: 223465399 heartbeat IPC: 1.51929 cumulative IPC: 1.51872 (Simulation time: 0 hr 20 min 36 sec) 
Heartbeat CPU 0 instructions: 350000000 cycles: 230042042 heartbeat IPC: 1.52053 cumulative IPC: 1.51877 (Simulation time: 0 hr 21 min 9 sec) 
Heartbeat CPU 0 instructions: 360000001 cycles: 236619838 heartbeat IPC: 1.52027 cumulative IPC: 1.51881 (Simulation time: 0 hr 21 min 43 sec) 
Heartbeat CPU 0 instructions: 370000000 cycles: 243200909 heartbeat IPC: 1.51951 cumulative IPC: 1.51883 (Simulation time: 0 hr 22 min 16 sec) 
Heartbeat CPU 0 instructions: 380000002 cycles: 249825312 heartbeat IPC: 1.50957 cumulative IPC: 1.51859 (Simulation time: 0 hr 22 min 53 sec) 
Heartbeat CPU 0 instructions: 390000004 cycles: 256418712 heartbeat IPC: 1.51667 cumulative IPC: 1.51854 (Simulation time: 0 hr 23 min 29 sec) 
Heartbeat CPU 0 instructions: 400000003 cycles: 262998375 heartbeat IPC: 1.51983 cumulative IPC: 1.51857 (Simulation time: 0 hr 24 min 3 sec) 
Heartbeat CPU 0 instructions: 410000001 cycles: 269577216 heartbeat IPC: 1.52002 cumulative IPC: 1.5186 (Simulation time: 0 hr 24 min 35 sec) 
Heartbeat CPU 0 instructions: 420000002 cycles: 276154165 heartbeat IPC: 1.52046 cumulative IPC: 1.51865 (Simulation time: 0 hr 25 min 6 sec) 
Heartbeat CPU 0 instructions: 430000004 cycles: 282764765 heartbeat IPC: 1.51272 cumulative IPC: 1.51851 (Simulation time: 0 hr 25 min 41 sec) 
Heartbeat CPU 0 instructions: 440000000 cycles: 289363794 heartbeat IPC: 1.51537 cumulative IPC: 1.51844 (Simulation time: 0 hr 26 min 15 sec) 
Heartbeat CPU 0 instructions: 450000002 cycles: 296052547 heartbeat IPC: 1.49505 cumulative IPC: 1.51791 (Simulation time: 0 hr 26 min 57 sec) 
Heartbeat CPU 0 instructions: 460000001 cycles: 302632466 heartbeat IPC: 1.51978 cumulative IPC: 1.51795 (Simulation time: 0 hr 27 min 28 sec) 
Heartbeat CPU 0 instructions: 470000003 cycles: 309215965 heartbeat IPC: 1.51895 cumulative IPC: 1.51797 (Simulation time: 0 hr 27 min 59 sec) 
Heartbeat CPU 0 instructions: 480000002 cycles: 315803162 heartbeat IPC: 1.5181 cumulative IPC: 1.51797 (Simulation time: 0 hr 28 min 32 sec) 
Heartbeat CPU 0 instructions: 490000000 cycles: 353973007 heartbeat IPC: 0.261987 cumulative IPC: 1.38244 (Simulation time: 0 hr 31 min 13 sec) 
Heartbeat CPU 0 instructions: 500000003 cycles: 360681940 heartbeat IPC: 1.49055 cumulative IPC: 1.38445 (Simulation time: 0 hr 32 min 9 sec) 
Heartbeat CPU 0 instructions: 510000000 cycles: 367424012 heartbeat IPC: 1.48322 cumulative IPC: 1.38627 (Simulation time: 0 hr 33 min 6 sec) 
Heartbeat CPU 0 instructions: 520000000 cycles: 374119324 heartbeat IPC: 1.49358 cumulative IPC: 1.38819 (Simulation time: 0 hr 34 min 3 sec) 
Heartbeat CPU 0 instructions: 530000000 cycles: 380840599 heartbeat IPC: 1.48781 cumulative IPC: 1.38995 (Simulation time: 0 hr 34 min 57 sec) 
Heartbeat CPU 0 instructions: 540000000 cycles: 387577193 heartbeat IPC: 1.48443 cumulative IPC: 1.39159 (Simulation time: 0 hr 35 min 54 sec) 
Heartbeat CPU 0 instructions: 550000002 cycles: 394282616 heartbeat IPC: 1.49133 cumulative IPC: 1.39329 (Simulation time: 0 hr 36 min 51 sec) 
Heartbeat CPU 0 instructions: 560000000 cycles: 405595751 heartbeat IPC: 0.883928 cumulative IPC: 1.37907 (Simulation time: 0 hr 38 min 6 sec) 
Heartbeat CPU 0 instructions: 570000003 cycles: 434105480 heartbeat IPC: 0.350758 cumulative IPC: 1.3115 (Simulation time: 0 hr 40 min 29 sec) 
Heartbeat CPU 0 instructions: 580000001 cycles: 440826118 heartbeat IPC: 1.48795 cumulative IPC: 1.31419 (Simulation time: 0 hr 41 min 26 sec) 
Heartbeat CPU 0 instructions: 590000003 cycles: 447546099 heartbeat IPC: 1.4881 cumulative IPC: 1.3168 (Simulation time: 0 hr 42 min 23 sec) 
Heartbeat CPU 0 instructions: 600000000 cycles: 454246544 heartbeat IPC: 1.49244 cumulative IPC: 1.3194 (Simulation time: 0 hr 43 min 17 sec) 
Heartbeat CPU 0 instructions: 610000001 cycles: 460993555 heartbeat IPC: 1.48214 cumulative IPC: 1.32178 (Simulation time: 0 hr 44 min 14 sec) 
Heartbeat CPU 0 instructions: 620000003 cycles: 467701817 heartbeat IPC: 1.4907 cumulative IPC: 1.3242 (Simulation time: 0 hr 45 min 14 sec) 
Heartbeat CPU 0 instructions: 630000000 cycles: 474436963 heartbeat IPC: 1.48475 cumulative IPC: 1.32648 (Simulation time: 0 hr 46 min 9 sec) 
Heartbeat CPU 0 instructions: 640000000 cycles: 503795096 heartbeat IPC: 0.340621 cumulative IPC: 1.26901 (Simulation time: 0 hr 48 min 28 sec) 
Heartbeat CPU 0 instructions: 650000000 cycles: 510504537 heartbeat IPC: 1.49044 cumulative IPC: 1.27192 (Simulation time: 0 hr 49 min 25 sec) 
Heartbeat CPU 0 instructions: 660000004 cycles: 517247908 heartbeat IPC: 1.48294 cumulative IPC: 1.27467 (Simulation time: 0 hr 50 min 21 sec) 
Heartbeat CPU 0 instructions: 670000001 cycles: 523938763 heartbeat IPC: 1.49458 cumulative IPC: 1.27748 (Simulation time: 0 hr 51 min 13 sec) 
Heartbeat CPU 0 instructions: 680000003 cycles: 530670090 heartbeat IPC: 1.48559 cumulative IPC: 1.28012 (Simulation time: 0 hr 52 min 2 sec) 
Heartbeat CPU 0 instructions: 690000000 cycles: 537400180 heartbeat IPC: 1.48586 cumulative IPC: 1.2827 (Simulation time: 0 hr 52 min 53 sec) 
Heartbeat CPU 0 instructions: 700000001 cycles: 544112378 heartbeat IPC: 1.48983 cumulative IPC: 1.28525 (Simulation time: 0 hr 53 min 44 sec) 
Heartbeat CPU 0 instructions: 710000003 cycles: 579799483 heartbeat IPC: 0.280213 cumulative IPC: 1.22337 (Simulation time: 0 hr 56 min 15 sec) 
Heartbeat CPU 0 instructions: 720000003 cycles: 594203814 heartbeat IPC: 0.694236 cumulative IPC: 1.21053 (Simulation time: 0 hr 57 min 26 sec) 
Heartbeat CPU 0 instructions: 730000003 cycles: 600936621 heartbeat IPC: 1.48526 cumulative IPC: 1.21361 (Simulation time: 0 hr 58 min 14 sec) 
Heartbeat CPU 0 instructions: 740000002 cycles: 607647657 heartbeat IPC: 1.49008 cumulative IPC: 1.21667 (Simulation time: 0 hr 59 min 2 sec) 
Heartbeat CPU 0 instructions: 750000004 cycles: 614353539 heartbeat IPC: 1.49123 cumulative IPC: 1.21967 (Simulation time: 0 hr 59 min 49 sec) 
Heartbeat CPU 0 instructions: 760000001 cycles: 621095551 heartbeat IPC: 1.48324 cumulative IPC: 1.22253 (Simulation time: 1 hr 0 min 37 sec) 
Heartbeat CPU 0 instructions: 770000000 cycles: 627802344 heartbeat IPC: 1.49103 cumulative IPC: 1.2254 (Simulation time: 1 hr 1 min 25 sec) 
Heartbeat CPU 0 instructions: 780000001 cycles: 634546295 heartbeat IPC: 1.48281 cumulative IPC: 1.22813 (Simulation time: 1 hr 2 min 12 sec) 
Heartbeat CPU 0 instructions: 790000004 cycles: 664712139 heartbeat IPC: 0.331501 cumulative IPC: 1.18743 (Simulation time: 1 hr 4 min 12 sec) 
Heartbeat CPU 0 instructions: 800000001 cycles: 671417335 heartbeat IPC: 1.49138 cumulative IPC: 1.19047 (Simulation time: 1 hr 5 min 0 sec) 
Heartbeat CPU 0 instructions: 810000001 cycles: 678155509 heartbeat IPC: 1.48408 cumulative IPC: 1.19338 (Simulation time: 1 hr 5 min 47 sec) 
Heartbeat CPU 0 instructions: 820000000 cycles: 684842040 heartbeat IPC: 1.49554 cumulative IPC: 1.19633 (Simulation time: 1 hr 6 min 34 sec) 
Heartbeat CPU 0 instructions: 830000002 cycles: 691581221 heartbeat IPC: 1.48386 cumulative IPC: 1.19914 (Simulation time: 1 hr 7 min 21 sec) 
Heartbeat CPU 0 instructions: 840000004 cycles: 698300043 heartbeat IPC: 1.48836 cumulative IPC: 1.20192 (Simulation time: 1 hr 8 min 8 sec) 
Heartbeat CPU 0 instructions: 850000003 cycles: 705022165 heartbeat IPC: 1.48763 cumulative IPC: 1.20465 (Simulation time: 1 hr 8 min 55 sec) 
Heartbeat CPU 0 instructions: 860000000 cycles: 735247791 heartbeat IPC: 0.330845 cumulative IPC: 1.16871 (Simulation time: 1 hr 10 min 53 sec) 
Heartbeat CPU 0 instructions: 870000002 cycles: 741950330 heartbeat IPC: 1.49197 cumulative IPC: 1.17163 (Simulation time: 1 hr 11 min 38 sec) 
Heartbeat CPU 0 instructions: 880000001 cycles: 748685048 heartbeat IPC: 1.48484 cumulative IPC: 1.17445 (Simulation time: 1 hr 12 min 24 sec) 
Heartbeat CPU 0 instructions: 890000004 cycles: 755392267 heartbeat IPC: 1.49093 cumulative IPC: 1.17726 (Simulation time: 1 hr 13 min 9 sec) 
Heartbeat CPU 0 instructions: 900000003 cycles: 762108023 heartbeat IPC: 1.48904 cumulative IPC: 1.18001 (Simulation time: 1 hr 13 min 54 sec) 
Heartbeat CPU 0 instructions: 910000000 cycles: 768845724 heartbeat IPC: 1.48419 cumulative IPC: 1.18268 (Simulation time: 1 hr 14 min 39 sec) 
Heartbeat CPU 0 instructions: 920000000 cycles: 775553789 heartbeat IPC: 1.49074 cumulative IPC: 1.18534 (Simulation time: 1 hr 15 min 25 sec) 
Heartbeat CPU 0 instructions: 930000001 cycles: 782301169 heartbeat IPC: 1.48206 cumulative IPC: 1.1879 (Simulation time: 1 hr 16 min 10 sec) 
Heartbeat CPU 0 instructions: 940000000 cycles: 811869581 heartbeat IPC: 0.338199 cumulative IPC: 1.15695 (Simulation time: 1 hr 18 min 4 sec) 
Heartbeat CPU 0 instructions: 950000000 cycles: 818592187 heartbeat IPC: 1.48752 cumulative IPC: 1.15966 (Simulation time: 1 hr 18 min 49 sec) 
Heartbeat CPU 0 instructions: 960000000 cycles: 825330369 heartbeat IPC: 1.48408 cumulative IPC: 1.16231 (Simulation time: 1 hr 19 min 34 sec) 
Heartbeat CPU 0 instructions: 970000002 cycles: 832032552 heartbeat IPC: 1.49205 cumulative IPC: 1.16497 (Simulation time: 1 hr 20 min 20 sec) 
Heartbeat CPU 0 instructions: 980000001 cycles: 838784088 heartbeat IPC: 1.48114 cumulative IPC: 1.16752 (Simulation time: 1 hr 21 min 5 sec) 
Heartbeat CPU 0 instructions: 990000003 cycles: 845500304 heartbeat IPC: 1.48893 cumulative IPC: 1.17007 (Simulation time: 1 hr 21 min 50 sec) 
Heartbeat CPU 0 instructions: 1000000004 cycles: 852235579 heartbeat IPC: 1.48472 cumulative IPC: 1.17256 (Simulation time: 1 hr 22 min 35 sec) 
Finished CPU 0 instructions: 1000000002 cycles: 852661394 cumulative IPC: 1.1728 (Simulation time: 1 hr 22 min 40 sec) 

ChampSim completed all CPUs

Region of Interest Statistics

CPU 0 cumulative IPC: 1.1728 instructions: 1000000002 cycles: 852661394
cpu0_DTLB TOTAL     ACCESS:  165715733  HIT:  165675810  MISS:      39923
cpu0_DTLB LOAD      ACCESS:  117279882  HIT:  117251354  MISS:      28528
cpu0_DTLB RFO       ACCESS:   48435851  HIT:   48424456  MISS:      11395
cpu0_DTLB PREFETCH  ACCESS:          0  HIT:          0  MISS:          0
cpu0_DTLB WRITEBACK ACCESS:          0  HIT:          0  MISS:          0
cpu0_DTLB TRANSLATION ACCESS:          0  HIT:          0  MISS:          0
cpu0_DTLB PREFETCH  REQUESTED:          0  ISSUED:          0  USEFUL:          0  USELESS:          0
cpu0_DTLB AVERAGE MISS LATENCY: 86.0656 cycles
cpu0_ITLB TOTAL     ACCESS:   74542765  HIT:   74542758  MISS:          7
cpu0_ITLB LOAD      ACCESS:   74542765  HIT:   74542758  MISS:          7
cpu0_ITLB RFO       ACCESS:          0  HIT:          0  MISS:          0
cpu0_ITLB PREFETCH  ACCESS:          0  HIT:          0  MISS:          0
cpu0_ITLB WRITEBACK ACCESS:          0  HIT:          0  MISS:          0
cpu0_ITLB TRANSLATION ACCESS:          0  HIT:          0  MISS:          0
cpu0_ITLB PREFETCH  REQUESTED:          0  ISSUED:          0  USEFUL:          0  USELESS:          0
cpu0_ITLB AVERAGE MISS LATENCY: 313.429 cycles
cpu0_L1I TOTAL     ACCESS:   55359572  HIT:   55359501  MISS:         71
cpu0_L1I LOAD      ACCESS:   55359572  HIT:   55359501  MISS:         71
cpu0_L1I RFO       ACCESS:          0  HIT:          0  MISS:          0
cpu0_L1I PREFETCH  ACCESS:          0  HIT:          0  MISS:          0
cpu0_L1I WRITEBACK ACCESS:          0  HIT:          0  MISS:          0
cpu0_L1I TRANSLATION ACCESS:          0  HIT:          0  MISS:          0
cpu0_L1I PREFETCH  REQUESTED:          0  ISSUED:          0  USEFUL:          0  USELESS:          0
cpu0_L1I AVERAGE MISS LATENCY: 511.535 cycles
cpu0_STLB TOTAL     ACCESS:      39930  HIT:       3406  MISS:      36524
cpu0_STLB LOAD      ACCESS:      28535  HIT:       3350  MISS:      25185
cpu0_STLB RFO       ACCESS:      11395  HIT:         56  MISS:      11339
cpu0_STLB PREFETCH  ACCESS:          0  HIT:          0  MISS:          0
cpu0_STLB WRITEBACK ACCESS:          0  HIT:          0  MISS:          0
cpu0_STLB TRANSLATION ACCESS:          0  HIT:          0  MISS:          0
cpu0_STLB PREFETCH  REQUESTED:          0  ISSUED:          0  USEFUL:          0  USELESS:          0
cpu0_STLB AVERAGE MISS LATENCY: 84.2949 cycles
cpu0_L1D TOTAL     ACCESS:  322275226  HIT:  320404639  MISS:    1870587
cpu0_L1D LOAD      ACCESS:  120143237  HIT:  119393736  MISS:     749501
cpu0_L1D RFO       ACCESS:   85263158  HIT:   84535056  MISS:     728102
cpu0_L1D PREFETCH  ACCESS:  116832374  HIT:  116439804  MISS:     392570
cpu0_L1D WRITEBACK ACCESS:          0  HIT:          0  MISS:          0
cpu0_L1D TRANSLATION ACCESS:      36457  HIT:      36043  MISS:        414
cpu0_L1D PREFETCH  REQUESTED:  121115677  ISSUED:  120800101  USEFUL:    1068879  USELESS:      22650
cpu0_L1D AVERAGE MISS LATENCY: 368.176 cycles
cpu0_L2C TOTAL     ACCESS:    4236379  HIT:    2333321  MISS:    1903058
cpu0_L2C LOAD      ACCESS:      50616  HIT:       9468  MISS:      41148
cpu0_L2C RFO       ACCESS:     727619  HIT:       3609  MISS:     724010
cpu0_L2C PREFETCH  ACCESS:    2720720  HIT:    1584626  MISS:    1136094
cpu0_L2C WRITEBACK ACCESS:     737010  HIT:     735354  MISS:       1656
cpu0_L2C TRANSLATION ACCESS:        414  HIT:        264  MISS:        150
cpu0_L2C PREFETCH  REQUESTED:    1661398  ISSUED:    1661398  USEFUL:      38274  USELESS:      21180
cpu0_L2C AVERAGE MISS LATENCY: 700.557 cycles
LLC TOTAL     ACCESS:    2626181  HIT:     722271  MISS:    1903910
LLC LOAD      ACCESS:      41148  HIT:        111  MISS:      41037
LLC RFO       ACCESS:     724010  HIT:        148  MISS:     723862
LLC PREFETCH  ACCESS:    1137726  HIT:        323  MISS:    1137403
LLC WRITEBACK ACCESS:     723147  HIT:     721657  MISS:       1490
LLC TRANSLATION ACCESS:        150  HIT:         32  MISS:        118
LLC PREFETCH  REQUESTED:          0  ISSUED:          0  USEFUL:          0  USELESS:          0
LLC AVERAGE MISS LATENCY: 674.547 cycles

DRAM Statistics
 CHANNEL 0
 RQ ROW_BUFFER_HIT:      45352  ROW_BUFFER_MISS:    1857068
 DBUS AVG_CONGESTED_CYCLE:    3.96795
 WQ ROW_BUFFER_HIT:      36673  ROW_BUFFER_MISS:     675386  FULL:          0


CPU 0 Branch Prediction Accuracy: 90.4292% MPKI: 12.6732 Average ROB Occupancy at Mispredict: 30.8828
Branch type MPKI
BRANCH_DIRECT_JUMP: 8e-06
BRANCH_INDIRECT: 0
BRANCH_CONDITIONAL: 12.6732
BRANCH_DIRECT_CALL: 8e-06
BRANCH_INDIRECT_CALL: 0
BRANCH_RETURN: 9e-06

