
*** ChampSim Multicore Out-of-Order Simulator ***

Warmup Instructions: 1000000
Simulation Instructions: 1000000000
Number of CPUs: 1
Off-chip DRAM Size: 4 GiB Channels: 1 Width: 64-bit Data Rate: 3200 MT/s

VirtualMemory physical capacity: 8588881920 num_ppages: 2096895
VirtualMemory page size: 4096 log2_page_size: 12

CPU 0 runs tracer/pin/traces/spec2k17/605.mcf_s-665B.champsimtrace.xz
Basic BTB sets: 1024 ways: 8 indirect buffer size: 4096 RAS size: 64
cpu0_L1D next line prefetcher
cpu0_L2C IP-based stride prefetcher
WARNING: The extended signature CACHE::prefetch_line(ip, base_addr, pf_addr, fill_this_level, prefetch_metadata) is deprecated.
WARNING: Use CACHE::prefetch_line(pf_addr, fill_this_level, prefetch_metadata) instead.

Warmup complete CPU 0 instructions: 1000004 cycles: 304141 (Simulation time: 0 hr 0 min 5 sec) 

Heartbeat CPU 0 instructions: 10000004 cycles: 28317572 heartbeat IPC: 0.353138 cumulative IPC: 0.321274 (Simulation time: 0 hr 1 min 43 sec) 
Heartbeat CPU 0 instructions: 20000000 cycles: 59441549 heartbeat IPC: 0.321296 cumulative IPC: 0.321286 (Simulation time: 0 hr 3 min 36 sec) 
Heartbeat CPU 0 instructions: 30000000 cycles: 89854773 heartbeat IPC: 0.328804 cumulative IPC: 0.323839 (Simulation time: 0 hr 5 min 24 sec) 
Heartbeat CPU 0 instructions: 40000002 cycles: 120844024 heartbeat IPC: 0.322693 cumulative IPC: 0.323544 (Simulation time: 0 hr 7 min 16 sec) 
Heartbeat CPU 0 instructions: 50000004 cycles: 150679297 heartbeat IPC: 0.335174 cumulative IPC: 0.325852 (Simulation time: 0 hr 9 min 5 sec) 
Heartbeat CPU 0 instructions: 60000001 cycles: 181479919 heartbeat IPC: 0.324669 cumulative IPC: 0.325651 (Simulation time: 0 hr 10 min 56 sec) 
Heartbeat CPU 0 instructions: 70000000 cycles: 211939594 heartbeat IPC: 0.328303 cumulative IPC: 0.326032 (Simulation time: 0 hr 12 min 47 sec) 
Heartbeat CPU 0 instructions: 80000001 cycles: 242652839 heartbeat IPC: 0.325592 cumulative IPC: 0.325977 (Simulation time: 0 hr 14 min 38 sec) 
Heartbeat CPU 0 instructions: 90000000 cycles: 274478083 heartbeat IPC: 0.314216 cumulative IPC: 0.324611 (Simulation time: 0 hr 16 min 31 sec) 
Heartbeat CPU 0 instructions: 100000001 cycles: 302650460 heartbeat IPC: 0.354958 cumulative IPC: 0.327439 (Simulation time: 0 hr 18 min 9 sec) 
Heartbeat CPU 0 instructions: 110000000 cycles: 331207671 heartbeat IPC: 0.350174 cumulative IPC: 0.329401 (Simulation time: 0 hr 19 min 48 sec) 
Heartbeat CPU 0 instructions: 120000000 cycles: 359056919 heartbeat IPC: 0.359076 cumulative IPC: 0.331705 (Simulation time: 0 hr 21 min 25 sec) 
Heartbeat CPU 0 instructions: 130000000 cycles: 386688930 heartbeat IPC: 0.361899 cumulative IPC: 0.333864 (Simulation time: 0 hr 23 min 2 sec) 
Heartbeat CPU 0 instructions: 140000000 cycles: 415203657 heartbeat IPC: 0.350696 cumulative IPC: 0.335021 (Simulation time: 0 hr 24 min 40 sec) 
Heartbeat CPU 0 instructions: 150000000 cycles: 443536234 heartbeat IPC: 0.352951 cumulative IPC: 0.336167 (Simulation time: 0 hr 26 min 18 sec) 
Heartbeat CPU 0 instructions: 160000000 cycles: 471261544 heartbeat IPC: 0.360681 cumulative IPC: 0.33761 (Simulation time: 0 hr 27 min 54 sec) 
Heartbeat CPU 0 instructions: 170000001 cycles: 499825809 heartbeat IPC: 0.350088 cumulative IPC: 0.338324 (Simulation time: 0 hr 29 min 33 sec) 
Heartbeat CPU 0 instructions: 180000002 cycles: 526963439 heartbeat IPC: 0.368492 cumulative IPC: 0.339878 (Simulation time: 0 hr 31 min 7 sec) 
Heartbeat CPU 0 instructions: 190000003 cycles: 555136437 heartbeat IPC: 0.35495 cumulative IPC: 0.340643 (Simulation time: 0 hr 32 min 46 sec) 
Heartbeat CPU 0 instructions: 200000001 cycles: 583713780 heartbeat IPC: 0.349927 cumulative IPC: 0.341098 (Simulation time: 0 hr 34 min 24 sec) 
Heartbeat CPU 0 instructions: 210000001 cycles: 612446140 heartbeat IPC: 0.34804 cumulative IPC: 0.341424 (Simulation time: 0 hr 36 min 5 sec) 
Heartbeat CPU 0 instructions: 220000000 cycles: 640082463 heartbeat IPC: 0.361843 cumulative IPC: 0.342306 (Simulation time: 0 hr 37 min 41 sec) 
Heartbeat CPU 0 instructions: 230000000 cycles: 669827079 heartbeat IPC: 0.336195 cumulative IPC: 0.342035 (Simulation time: 0 hr 39 min 22 sec) 
Heartbeat CPU 0 instructions: 240000000 cycles: 696841316 heartbeat IPC: 0.370175 cumulative IPC: 0.343126 (Simulation time: 0 hr 40 min 57 sec) 
Heartbeat CPU 0 instructions: 250000001 cycles: 724690936 heartbeat IPC: 0.359071 cumulative IPC: 0.343739 (Simulation time: 0 hr 42 min 33 sec) 
Heartbeat CPU 0 instructions: 260000004 cycles: 752646532 heartbeat IPC: 0.35771 cumulative IPC: 0.344258 (Simulation time: 0 hr 44 min 10 sec) 
Heartbeat CPU 0 instructions: 270000001 cycles: 780564459 heartbeat IPC: 0.358193 cumulative IPC: 0.344757 (Simulation time: 0 hr 45 min 45 sec) 
Heartbeat CPU 0 instructions: 280000001 cycles: 808629179 heartbeat IPC: 0.356319 cumulative IPC: 0.345158 (Simulation time: 0 hr 47 min 18 sec) 
Heartbeat CPU 0 instructions: 290000000 cycles: 835498469 heartbeat IPC: 0.372172 cumulative IPC: 0.346027 (Simulation time: 0 hr 48 min 47 sec) 
Heartbeat CPU 0 instructions: 300000000 cycles: 863682921 heartbeat IPC: 0.354806 cumulative IPC: 0.346314 (Simulation time: 0 hr 50 min 19 sec) 
Heartbeat CPU 0 instructions: 310000003 cycles: 889027120 heartbeat IPC: 0.394568 cumulative IPC: 0.34769 (Simulation time: 0 hr 51 min 45 sec) 
Heartbeat CPU 0 instructions: 320000000 cycles: 915989260 heartbeat IPC: 0.37089 cumulative IPC: 0.348373 (Simulation time: 0 hr 53 min 16 sec) 
Heartbeat CPU 0 instructions: 330000002 cycles: 942319852 heartbeat IPC: 0.379786 cumulative IPC: 0.349251 (Simulation time: 0 hr 54 min 45 sec) 
Heartbeat CPU 0 instructions: 340000000 cycles: 968417842 heartbeat IPC: 0.383171 cumulative IPC: 0.350165 (Simulation time: 0 hr 56 min 14 sec) 
Heartbeat CPU 0 instructions: 350000003 cycles: 994633041 heartbeat IPC: 0.381458 cumulative IPC: 0.350991 (Simulation time: 0 hr 57 min 44 sec) 
Heartbeat CPU 0 instructions: 360000002 cycles: 1020379892 heartbeat IPC: 0.388397 cumulative IPC: 0.351935 (Simulation time: 0 hr 59 min 10 sec) 
Heartbeat CPU 0 instructions: 370000002 cycles: 1046256730 heartbeat IPC: 0.386446 cumulative IPC: 0.352788 (Simulation time: 1 hr 0 min 38 sec) 
Heartbeat CPU 0 instructions: 380000001 cycles: 1072487239 heartbeat IPC: 0.381235 cumulative IPC: 0.353484 (Simulation time: 1 hr 2 min 3 sec) 
Heartbeat CPU 0 instructions: 390000000 cycles: 1098751885 heartbeat IPC: 0.38074 cumulative IPC: 0.354136 (Simulation time: 1 hr 3 min 29 sec) 
Heartbeat CPU 0 instructions: 400000002 cycles: 1124796716 heartbeat IPC: 0.383953 cumulative IPC: 0.354827 (Simulation time: 1 hr 4 min 54 sec) 
Heartbeat CPU 0 instructions: 410000002 cycles: 1151061656 heartbeat IPC: 0.380736 cumulative IPC: 0.355418 (Simulation time: 1 hr 6 min 19 sec) 
Heartbeat CPU 0 instructions: 420000001 cycles: 1177335836 heartbeat IPC: 0.380602 cumulative IPC: 0.35598 (Simulation time: 1 hr 7 min 43 sec) 
Heartbeat CPU 0 instructions: 430000000 cycles: 1203495315 heartbeat IPC: 0.382271 cumulative IPC: 0.356552 (Simulation time: 1 hr 9 min 5 sec) 
Heartbeat CPU 0 instructions: 440000003 cycles: 1229680571 heartbeat IPC: 0.381894 cumulative IPC: 0.357092 (Simulation time: 1 hr 10 min 23 sec) 
Heartbeat CPU 0 instructions: 450000004 cycles: 1256633690 heartbeat IPC: 0.371015 cumulative IPC: 0.35739 (Simulation time: 1 hr 11 min 46 sec) 
Heartbeat CPU 0 instructions: 460000000 cycles: 1283972698 heartbeat IPC: 0.365778 cumulative IPC: 0.357569 (Simulation time: 1 hr 13 min 8 sec) 
Heartbeat CPU 0 instructions: 470000000 cycles: 1312131196 heartbeat IPC: 0.355133 cumulative IPC: 0.357517 (Simulation time: 1 hr 14 min 29 sec) 
Heartbeat CPU 0 instructions: 480000000 cycles: 1339518057 heartbeat IPC: 0.365139 cumulative IPC: 0.357673 (Simulation time: 1 hr 15 min 49 sec) 
Heartbeat CPU 0 instructions: 490000003 cycles: 1366894980 heartbeat IPC: 0.365271 cumulative IPC: 0.357825 (Simulation time: 1 hr 17 min 12 sec) 
Heartbeat CPU 0 instructions: 500000000 cycles: 1395297757 heartbeat IPC: 0.352078 cumulative IPC: 0.357708 (Simulation time: 1 hr 18 min 37 sec) 
Heartbeat CPU 0 instructions: 510000003 cycles: 1422586378 heartbeat IPC: 0.366453 cumulative IPC: 0.357876 (Simulation time: 1 hr 19 min 59 sec) 
Heartbeat CPU 0 instructions: 520000000 cycles: 1449979171 heartbeat IPC: 0.365059 cumulative IPC: 0.358011 (Simulation time: 1 hr 21 min 22 sec) 
Heartbeat CPU 0 instructions: 530000004 cycles: 1478388677 heartbeat IPC: 0.351995 cumulative IPC: 0.357896 (Simulation time: 1 hr 22 min 44 sec) 
Heartbeat CPU 0 instructions: 540000002 cycles: 1505826987 heartbeat IPC: 0.364454 cumulative IPC: 0.358015 (Simulation time: 1 hr 24 min 6 sec) 
Heartbeat CPU 0 instructions: 550000004 cycles: 1534355568 heartbeat IPC: 0.350526 cumulative IPC: 0.357876 (Simulation time: 1 hr 25 min 31 sec) 
Heartbeat CPU 0 instructions: 560000003 cycles: 1562628778 heartbeat IPC: 0.353692 cumulative IPC: 0.3578 (Simulation time: 1 hr 26 min 54 sec) 
Heartbeat CPU 0 instructions: 570000001 cycles: 1605556464 heartbeat IPC: 0.23295 cumulative IPC: 0.354461 (Simulation time: 1 hr 28 min 42 sec) 
Heartbeat CPU 0 instructions: 580000004 cycles: 1635807341 heartbeat IPC: 0.330569 cumulative IPC: 0.354019 (Simulation time: 1 hr 30 min 14 sec) 
Heartbeat CPU 0 instructions: 590000000 cycles: 1666817558 heartbeat IPC: 0.322474 cumulative IPC: 0.353433 (Simulation time: 1 hr 31 min 46 sec) 
Heartbeat CPU 0 instructions: 600000000 cycles: 1697229178 heartbeat IPC: 0.328822 cumulative IPC: 0.352991 (Simulation time: 1 hr 33 min 14 sec) 
Heartbeat CPU 0 instructions: 610000001 cycles: 1728025871 heartbeat IPC: 0.32471 cumulative IPC: 0.352487 (Simulation time: 1 hr 34 min 47 sec) 
Heartbeat CPU 0 instructions: 620000002 cycles: 1757454784 heartbeat IPC: 0.339802 cumulative IPC: 0.352275 (Simulation time: 1 hr 36 min 14 sec) 
Heartbeat CPU 0 instructions: 630000001 cycles: 1787903176 heartbeat IPC: 0.328425 cumulative IPC: 0.351869 (Simulation time: 1 hr 37 min 44 sec) 
Heartbeat CPU 0 instructions: 640000000 cycles: 1818208449 heartbeat IPC: 0.329976 cumulative IPC: 0.351504 (Simulation time: 1 hr 39 min 12 sec) 
Heartbeat CPU 0 instructions: 650000000 cycles: 1847554351 heartbeat IPC: 0.340763 cumulative IPC: 0.351333 (Simulation time: 1 hr 40 min 39 sec) 
Heartbeat CPU 0 instructions: 660000004 cycles: 1877759461 heartbeat IPC: 0.33107 cumulative IPC: 0.351007 (Simulation time: 1 hr 42 min 8 sec) 
Heartbeat CPU 0 instructions: 670000002 cycles: 1908075577 heartbeat IPC: 0.329857 cumulative IPC: 0.350671 (Simulation time: 1 hr 43 min 37 sec) 
Heartbeat CPU 0 instructions: 680000000 cycles: 1938269394 heartbeat IPC: 0.331194 cumulative IPC: 0.350367 (Simulation time: 1 hr 45 min 4 sec) 
Heartbeat CPU 0 instructions: 690000001 cycles: 1967636525 heartbeat IPC: 0.340517 cumulative IPC: 0.35022 (Simulation time: 1 hr 46 min 30 sec) 
Heartbeat CPU 0 instructions: 700000000 cycles: 1998129000 heartbeat IPC: 0.32795 cumulative IPC: 0.349881 (Simulation time: 1 hr 47 min 57 sec) 
Heartbeat CPU 0 instructions: 710000000 cycles: 2028219068 heartbeat IPC: 0.332336 cumulative IPC: 0.34962 (Simulation time: 1 hr 49 min 21 sec) 
Heartbeat CPU 0 instructions: 720000000 cycles: 2058701133 heartbeat IPC: 0.328062 cumulative IPC: 0.349301 (Simulation time: 1 hr 50 min 52 sec) 
Heartbeat CPU 0 instructions: 730000002 cycles: 2089681642 heartbeat IPC: 0.322784 cumulative IPC: 0.348908 (Simulation time: 1 hr 52 min 18 sec) 
Heartbeat CPU 0 instructions: 740000002 cycles: 2119987355 heartbeat IPC: 0.329971 cumulative IPC: 0.348637 (Simulation time: 1 hr 53 min 48 sec) 
Heartbeat CPU 0 instructions: 750000001 cycles: 2150127014 heartbeat IPC: 0.331789 cumulative IPC: 0.348401 (Simulation time: 1 hr 55 min 12 sec) 
Heartbeat CPU 0 instructions: 760000000 cycles: 2181125970 heartbeat IPC: 0.322591 cumulative IPC: 0.348034 (Simulation time: 1 hr 56 min 39 sec) 
Heartbeat CPU 0 instructions: 770000000 cycles: 2212070567 heartbeat IPC: 0.323158 cumulative IPC: 0.347686 (Simulation time: 1 hr 58 min 8 sec) 
Heartbeat CPU 0 instructions: 780000000 cycles: 2242711585 heartbeat IPC: 0.32636 cumulative IPC: 0.347394 (Simulation time: 1 hr 59 min 38 sec) 
Heartbeat CPU 0 instructions: 790000000 cycles: 2273562320 heartbeat IPC: 0.324141 cumulative IPC: 0.347079 (Simulation time: 2 hr 1 min 11 sec) 
Heartbeat CPU 0 instructions: 800000000 cycles: 2308718820 heartbeat IPC: 0.284442 cumulative IPC: 0.346125 (Simulation time: 2 hr 2 min 50 sec) 
Heartbeat CPU 0 instructions: 810000002 cycles: 2342584452 heartbeat IPC: 0.295285 cumulative IPC: 0.34539 (Simulation time: 2 hr 4 min 34 sec) 
Heartbeat CPU 0 instructions: 820000001 cycles: 2376638863 heartbeat IPC: 0.293648 cumulative IPC: 0.344648 (Simulation time: 2 hr 6 min 14 sec) 
Heartbeat CPU 0 instructions: 830000000 cycles: 2411991469 heartbeat IPC: 0.282865 cumulative IPC: 0.343743 (Simulation time: 2 hr 8 min 1 sec) 
Heartbeat CPU 0 instructions: 840000002 cycles: 2446606540 heartbeat IPC: 0.288892 cumulative IPC: 0.342967 (Simulation time: 2 hr 9 min 46 sec) 
Heartbeat CPU 0 instructions: 850000001 cycles: 2484733191 heartbeat IPC: 0.262284 cumulative IPC: 0.341728 (Simulation time: 2 hr 11 min 48 sec) 
Heartbeat CPU 0 instructions: 860000001 cycles: 2521521350 heartbeat IPC: 0.271827 cumulative IPC: 0.340708 (Simulation time: 2 hr 13 min 38 sec) 
Heartbeat CPU 0 instructions: 870000003 cycles: 2558583625 heartbeat IPC: 0.269816 cumulative IPC: 0.339681 (Simulation time: 2 hr 15 min 26 sec) 
Heartbeat CPU 0 instructions: 880000001 cycles: 2595638791 heartbeat IPC: 0.269868 cumulative IPC: 0.338685 (Simulation time: 2 hr 17 min 7 sec) 
Heartbeat CPU 0 instructions: 890000000 cycles: 2633350343 heartbeat IPC: 0.265171 cumulative IPC: 0.337632 (Simulation time: 2 hr 18 min 52 sec) 
Heartbeat CPU 0 instructions: 900000000 cycles: 2670912490 heartbeat IPC: 0.266225 cumulative IPC: 0.336627 (Simulation time: 2 hr 20 min 38 sec) 
Heartbeat CPU 0 instructions: 910000002 cycles: 2708014782 heartbeat IPC: 0.269525 cumulative IPC: 0.335708 (Simulation time: 2 hr 22 min 24 sec) 
Heartbeat CPU 0 instructions: 920000002 cycles: 2746306882 heartbeat IPC: 0.26115 cumulative IPC: 0.334668 (Simulation time: 2 hr 24 min 3 sec) 
Heartbeat CPU 0 instructions: 930000004 cycles: 2784132857 heartbeat IPC: 0.264369 cumulative IPC: 0.333713 (Simulation time: 2 hr 25 min 43 sec) 
Heartbeat CPU 0 instructions: 940000000 cycles: 2822205610 heartbeat IPC: 0.262655 cumulative IPC: 0.332754 (Simulation time: 2 hr 27 min 28 sec) 
Heartbeat CPU 0 instructions: 950000003 cycles: 2860218685 heartbeat IPC: 0.263067 cumulative IPC: 0.331828 (Simulation time: 2 hr 29 min 17 sec) 
Heartbeat CPU 0 instructions: 960000002 cycles: 2898070059 heartbeat IPC: 0.264191 cumulative IPC: 0.330945 (Simulation time: 2 hr 30 min 52 sec) 
Heartbeat CPU 0 instructions: 970000001 cycles: 2936938591 heartbeat IPC: 0.257278 cumulative IPC: 0.32997 (Simulation time: 2 hr 32 min 27 sec) 
Heartbeat CPU 0 instructions: 980000001 cycles: 2974897890 heartbeat IPC: 0.26344 cumulative IPC: 0.329121 (Simulation time: 2 hr 33 min 59 sec) 
Heartbeat CPU 0 instructions: 990000003 cycles: 3011853142 heartbeat IPC: 0.270598 cumulative IPC: 0.328402 (Simulation time: 2 hr 35 min 27 sec) 
Heartbeat CPU 0 instructions: 1000000002 cycles: 3048940890 heartbeat IPC: 0.269631 cumulative IPC: 0.327687 (Simulation time: 2 hr 36 min 56 sec) 
Finished CPU 0 instructions: 1000000002 cycles: 3052432871 cumulative IPC: 0.327608 (Simulation time: 2 hr 37 min 5 sec) 

ChampSim completed all CPUs

Region of Interest Statistics

CPU 0 cumulative IPC: 0.327608 instructions: 1000000002 cycles: 3052432871
cpu0_DTLB TOTAL     ACCESS:  268435873  HIT:  251039815  MISS:   17396058
cpu0_DTLB LOAD      ACCESS:  204640006  HIT:  189442722  MISS:   15197284
cpu0_DTLB RFO       ACCESS:   63795867  HIT:   61597093  MISS:    2198774
cpu0_DTLB PREFETCH  ACCESS:          0  HIT:          0  MISS:          0
cpu0_DTLB WRITEBACK ACCESS:          0  HIT:          0  MISS:          0
cpu0_DTLB TRANSLATION ACCESS:          0  HIT:          0  MISS:          0
cpu0_DTLB PREFETCH  REQUESTED:          0  ISSUED:          0  USEFUL:          0  USELESS:          0
cpu0_DTLB AVERAGE MISS LATENCY: 10.8284 cycles
cpu0_ITLB TOTAL     ACCESS:  151472694  HIT:  151472694  MISS:          0
cpu0_ITLB LOAD      ACCESS:  151472694  HIT:  151472694  MISS:          0
cpu0_ITLB RFO       ACCESS:          0  HIT:          0  MISS:          0
cpu0_ITLB PREFETCH  ACCESS:          0  HIT:          0  MISS:          0
cpu0_ITLB WRITEBACK ACCESS:          0  HIT:          0  MISS:          0
cpu0_ITLB TRANSLATION ACCESS:          0  HIT:          0  MISS:          0
cpu0_ITLB PREFETCH  REQUESTED:          0  ISSUED:          0  USEFUL:          0  USELESS:          0
cpu0_ITLB AVERAGE MISS LATENCY: -nan cycles
cpu0_L1I TOTAL     ACCESS:    2040534  HIT:    2040532  MISS:          2
cpu0_L1I LOAD      ACCESS:    2040534  HIT:    2040532  MISS:          2
cpu0_L1I RFO       ACCESS:          0  HIT:          0  MISS:          0
cpu0_L1I PREFETCH  ACCESS:          0  HIT:          0  MISS:          0
cpu0_L1I WRITEBACK ACCESS:          0  HIT:          0  MISS:          0
cpu0_L1I TRANSLATION ACCESS:          0  HIT:          0  MISS:          0
cpu0_L1I PREFETCH  REQUESTED:          0  ISSUED:          0  USEFUL:          0  USELESS:          0
cpu0_L1I AVERAGE MISS LATENCY: 340.5 cycles
cpu0_STLB TOTAL     ACCESS:   17396058  HIT:   17147602  MISS:     248456
cpu0_STLB LOAD      ACCESS:   15197284  HIT:   14952609  MISS:     244675
cpu0_STLB RFO       ACCESS:    2198774  HIT:    2194993  MISS:       3781
cpu0_STLB PREFETCH  ACCESS:          0  HIT:          0  MISS:          0
cpu0_STLB WRITEBACK ACCESS:          0  HIT:          0  MISS:          0
cpu0_STLB TRANSLATION ACCESS:          0  HIT:          0  MISS:          0
cpu0_STLB PREFETCH  REQUESTED:          0  ISSUED:          0  USEFUL:          0  USELESS:          0
cpu0_STLB AVERAGE MISS LATENCY: 127.71 cycles
cpu0_L1D TOTAL     ACCESS:  615623547  HIT:  543591022  MISS:   72032525
cpu0_L1D LOAD      ACCESS:  259093300  HIT:  221798035  MISS:   37295265
cpu0_L1D RFO       ACCESS:  107932487  HIT:  103780243  MISS:    4152244
cpu0_L1D PREFETCH  ACCESS:  248349999  HIT:  217826897  MISS:   30523102
cpu0_L1D WRITEBACK ACCESS:          0  HIT:          0  MISS:          0
cpu0_L1D TRANSLATION ACCESS:     247761  HIT:     185847  MISS:      61914
cpu0_L1D PREFETCH  REQUESTED:  260779882  ISSUED:  258166422  USEFUL:   12429635  USELESS:   20692344
cpu0_L1D AVERAGE MISS LATENCY: 114.095 cycles
cpu0_L2C TOTAL     ACCESS:   81930448  HIT:   33662730  MISS:   48267718
cpu0_L2C LOAD      ACCESS:   34723459  HIT:   12547658  MISS:   22175801
cpu0_L2C RFO       ACCESS:    4124931  HIT:     949377  MISS:    3175554
cpu0_L2C PREFETCH  ACCESS:   36533295  HIT:   13645055  MISS:   22888240
cpu0_L2C WRITEBACK ACCESS:    6486849  HIT:    6479126  MISS:       7723
cpu0_L2C TRANSLATION ACCESS:      61914  HIT:      41514  MISS:      20400
cpu0_L2C PREFETCH  REQUESTED:    4429812  ISSUED:    3715889  USEFUL:     418115  USELESS:     301788
cpu0_L2C AVERAGE MISS LATENCY: 176.442 cycles
LLC TOTAL     ACCESS:   52928971  HIT:   34858915  MISS:   18070056
LLC LOAD      ACCESS:   22175698  HIT:   13760872  MISS:    8414826
LLC RFO       ACCESS:    3175495  HIT:    3128770  MISS:      46725
LLC PREFETCH  ACCESS:   23017150  HIT:   13412063  MISS:    9605087
LLC WRITEBACK ACCESS:    4540228  HIT:    4539549  MISS:        679
LLC TRANSLATION ACCESS:      20400  HIT:      17661  MISS:       2739
LLC PREFETCH  REQUESTED:          0  ISSUED:          0  USEFUL:          0  USELESS:          0
LLC AVERAGE MISS LATENCY: 403.172 cycles

DRAM Statistics
 CHANNEL 0
 RQ ROW_BUFFER_HIT:    2138457  ROW_BUFFER_MISS:   15912772
 DBUS AVG_CONGESTED_CYCLE:    3.76806
 WQ ROW_BUFFER_HIT:      69166  ROW_BUFFER_MISS:     151555  FULL:          0


CPU 0 Branch Prediction Accuracy: 90.3357% MPKI: 24.2248 Average ROB Occupancy at Mispredict: 23.8021
Branch type MPKI
BRANCH_DIRECT_JUMP: 3e-06
BRANCH_INDIRECT: 0
BRANCH_CONDITIONAL: 24.2236
BRANCH_DIRECT_CALL: 0
BRANCH_INDIRECT_CALL: 0.001178
BRANCH_RETURN: 0

