
*** ChampSim Multicore Out-of-Order Simulator ***

Warmup Instructions: 1000000
Simulation Instructions: 1000000000
Number of CPUs: 1
Off-chip DRAM Size: 4 GiB Channels: 1 Width: 64-bit Data Rate: 3200 MT/s

VirtualMemory physical capacity: 8588881920 num_ppages: 2096895
VirtualMemory page size: 4096 log2_page_size: 12

CPU 0 runs tracer/pin/traces/spec2k17/649.fotonik3d_s-1176B.champsimtrace.xz
Basic BTB sets: 1024 ways: 8 indirect buffer size: 4096 RAS size: 64
cpu0_L1D next line prefetcher
cpu0_L2C IP-based stride prefetcher
WARNING: The extended signature CACHE::prefetch_line(ip, base_addr, pf_addr, fill_this_level, prefetch_metadata) is deprecated.
WARNING: Use CACHE::prefetch_line(pf_addr, fill_this_level, prefetch_metadata) instead.

Warmup complete CPU 0 instructions: 1000003 cycles: 350910 (Simulation time: 0 hr 0 min 4 sec) 

Heartbeat CPU 0 instructions: 10000001 cycles: 15640994 heartbeat IPC: 0.639346 cumulative IPC: 0.588617 (Simulation time: 0 hr 1 min 41 sec) 
Heartbeat CPU 0 instructions: 20000004 cycles: 34960172 heartbeat IPC: 0.517621 cumulative IPC: 0.548986 (Simulation time: 0 hr 3 min 46 sec) 
Heartbeat CPU 0 instructions: 30000003 cycles: 54290331 heartbeat IPC: 0.517326 cumulative IPC: 0.53764 (Simulation time: 0 hr 5 min 51 sec) 
Heartbeat CPU 0 instructions: 40000002 cycles: 73618484 heartbeat IPC: 0.51738 cumulative IPC: 0.532295 (Simulation time: 0 hr 7 min 55 sec) 
Heartbeat CPU 0 instructions: 50000001 cycles: 92953177 heartbeat IPC: 0.517205 cumulative IPC: 0.529145 (Simulation time: 0 hr 10 min 1 sec) 
Heartbeat CPU 0 instructions: 60000001 cycles: 112291066 heartbeat IPC: 0.51712 cumulative IPC: 0.527067 (Simulation time: 0 hr 12 min 7 sec) 
Heartbeat CPU 0 instructions: 70000000 cycles: 131638842 heartbeat IPC: 0.516855 cumulative IPC: 0.525562 (Simulation time: 0 hr 14 min 12 sec) 
Heartbeat CPU 0 instructions: 80000000 cycles: 150991851 heartbeat IPC: 0.516716 cumulative IPC: 0.524426 (Simulation time: 0 hr 16 min 13 sec) 
Heartbeat CPU 0 instructions: 90000004 cycles: 170319794 heartbeat IPC: 0.517386 cumulative IPC: 0.523625 (Simulation time: 0 hr 18 min 15 sec) 
Heartbeat CPU 0 instructions: 100000003 cycles: 189671667 heartbeat IPC: 0.516746 cumulative IPC: 0.522922 (Simulation time: 0 hr 20 min 14 sec) 
Heartbeat CPU 0 instructions: 110000001 cycles: 209009448 heartbeat IPC: 0.517122 cumulative IPC: 0.522385 (Simulation time: 0 hr 22 min 12 sec) 
Heartbeat CPU 0 instructions: 120000002 cycles: 228325111 heartbeat IPC: 0.517715 cumulative IPC: 0.521989 (Simulation time: 0 hr 24 min 5 sec) 
Heartbeat CPU 0 instructions: 130000000 cycles: 247668737 heartbeat IPC: 0.516966 cumulative IPC: 0.521596 (Simulation time: 0 hr 25 min 55 sec) 
Heartbeat CPU 0 instructions: 140000001 cycles: 266997925 heartbeat IPC: 0.517352 cumulative IPC: 0.521288 (Simulation time: 0 hr 27 min 39 sec) 
Heartbeat CPU 0 instructions: 150000000 cycles: 286336755 heartbeat IPC: 0.517094 cumulative IPC: 0.521005 (Simulation time: 0 hr 29 min 29 sec) 
Heartbeat CPU 0 instructions: 160000001 cycles: 305670876 heartbeat IPC: 0.51722 cumulative IPC: 0.520765 (Simulation time: 0 hr 31 min 11 sec) 
Heartbeat CPU 0 instructions: 170000002 cycles: 324978804 heartbeat IPC: 0.517922 cumulative IPC: 0.520596 (Simulation time: 0 hr 32 min 54 sec) 
Heartbeat CPU 0 instructions: 180000001 cycles: 344324762 heartbeat IPC: 0.516904 cumulative IPC: 0.520388 (Simulation time: 0 hr 34 min 35 sec) 
Heartbeat CPU 0 instructions: 190000004 cycles: 363665512 heartbeat IPC: 0.517043 cumulative IPC: 0.52021 (Simulation time: 0 hr 36 min 14 sec) 
Heartbeat CPU 0 instructions: 200000002 cycles: 383012496 heartbeat IPC: 0.516876 cumulative IPC: 0.520042 (Simulation time: 0 hr 37 min 57 sec) 
Heartbeat CPU 0 instructions: 210000001 cycles: 402374389 heartbeat IPC: 0.516478 cumulative IPC: 0.51987 (Simulation time: 0 hr 39 min 34 sec) 
Heartbeat CPU 0 instructions: 220000002 cycles: 421710891 heartbeat IPC: 0.517157 cumulative IPC: 0.519746 (Simulation time: 0 hr 41 min 13 sec) 
Heartbeat CPU 0 instructions: 230000000 cycles: 441062871 heartbeat IPC: 0.516743 cumulative IPC: 0.519614 (Simulation time: 0 hr 42 min 57 sec) 
Heartbeat CPU 0 instructions: 240000004 cycles: 460375973 heartbeat IPC: 0.517783 cumulative IPC: 0.519537 (Simulation time: 0 hr 44 min 38 sec) 
Heartbeat CPU 0 instructions: 250000003 cycles: 479712380 heartbeat IPC: 0.517159 cumulative IPC: 0.519441 (Simulation time: 0 hr 46 min 16 sec) 
Heartbeat CPU 0 instructions: 260000003 cycles: 499030099 heartbeat IPC: 0.517659 cumulative IPC: 0.519372 (Simulation time: 0 hr 47 min 58 sec) 
Heartbeat CPU 0 instructions: 270000002 cycles: 516856636 heartbeat IPC: 0.560961 cumulative IPC: 0.520807 (Simulation time: 0 hr 49 min 35 sec) 
Heartbeat CPU 0 instructions: 280000000 cycles: 533601139 heartbeat IPC: 0.597211 cumulative IPC: 0.523207 (Simulation time: 0 hr 51 min 5 sec) 
Heartbeat CPU 0 instructions: 290000003 cycles: 552940915 heartbeat IPC: 0.517069 cumulative IPC: 0.522992 (Simulation time: 0 hr 52 min 44 sec) 
Heartbeat CPU 0 instructions: 300000001 cycles: 572274028 heartbeat IPC: 0.517247 cumulative IPC: 0.522798 (Simulation time: 0 hr 54 min 19 sec) 
Heartbeat CPU 0 instructions: 310000004 cycles: 591614307 heartbeat IPC: 0.517056 cumulative IPC: 0.52261 (Simulation time: 0 hr 55 min 48 sec) 
Heartbeat CPU 0 instructions: 320000003 cycles: 610959666 heartbeat IPC: 0.51692 cumulative IPC: 0.522429 (Simulation time: 0 hr 57 min 23 sec) 
Heartbeat CPU 0 instructions: 330000002 cycles: 630270710 heartbeat IPC: 0.517838 cumulative IPC: 0.522289 (Simulation time: 0 hr 58 min 55 sec) 
Heartbeat CPU 0 instructions: 340000001 cycles: 649608557 heartbeat IPC: 0.517121 cumulative IPC: 0.522135 (Simulation time: 1 hr 0 min 24 sec) 
Heartbeat CPU 0 instructions: 350000001 cycles: 668933426 heartbeat IPC: 0.517468 cumulative IPC: 0.522 (Simulation time: 1 hr 1 min 49 sec) 
Heartbeat CPU 0 instructions: 360000000 cycles: 688283526 heartbeat IPC: 0.516793 cumulative IPC: 0.521853 (Simulation time: 1 hr 3 min 18 sec) 
Heartbeat CPU 0 instructions: 370000004 cycles: 707622795 heartbeat IPC: 0.517083 cumulative IPC: 0.521723 (Simulation time: 1 hr 4 min 42 sec) 
Heartbeat CPU 0 instructions: 380000003 cycles: 726966398 heartbeat IPC: 0.516967 cumulative IPC: 0.521596 (Simulation time: 1 hr 6 min 7 sec) 
Heartbeat CPU 0 instructions: 390000002 cycles: 746301470 heartbeat IPC: 0.517195 cumulative IPC: 0.521482 (Simulation time: 1 hr 7 min 32 sec) 
Heartbeat CPU 0 instructions: 400000001 cycles: 765616422 heartbeat IPC: 0.517734 cumulative IPC: 0.521388 (Simulation time: 1 hr 8 min 58 sec) 
Heartbeat CPU 0 instructions: 410000002 cycles: 784947006 heartbeat IPC: 0.517315 cumulative IPC: 0.521287 (Simulation time: 1 hr 10 min 23 sec) 
Heartbeat CPU 0 instructions: 420000001 cycles: 804257255 heartbeat IPC: 0.51786 cumulative IPC: 0.521205 (Simulation time: 1 hr 11 min 49 sec) 
Heartbeat CPU 0 instructions: 430000001 cycles: 823586836 heartbeat IPC: 0.517342 cumulative IPC: 0.521114 (Simulation time: 1 hr 13 min 19 sec) 
Heartbeat CPU 0 instructions: 440000004 cycles: 842930471 heartbeat IPC: 0.516966 cumulative IPC: 0.521019 (Simulation time: 1 hr 14 min 41 sec) 
Heartbeat CPU 0 instructions: 450000000 cycles: 862239071 heartbeat IPC: 0.517904 cumulative IPC: 0.520949 (Simulation time: 1 hr 16 min 3 sec) 
Heartbeat CPU 0 instructions: 460000004 cycles: 881561945 heartbeat IPC: 0.517522 cumulative IPC: 0.520874 (Simulation time: 1 hr 17 min 24 sec) 
Heartbeat CPU 0 instructions: 470000003 cycles: 900893891 heartbeat IPC: 0.517278 cumulative IPC: 0.520797 (Simulation time: 1 hr 18 min 46 sec) 
Heartbeat CPU 0 instructions: 480000002 cycles: 920229425 heartbeat IPC: 0.517182 cumulative IPC: 0.520721 (Simulation time: 1 hr 20 min 7 sec) 
Heartbeat CPU 0 instructions: 490000001 cycles: 939562485 heartbeat IPC: 0.517249 cumulative IPC: 0.520649 (Simulation time: 1 hr 21 min 29 sec) 
Heartbeat CPU 0 instructions: 500000000 cycles: 958905841 heartbeat IPC: 0.516973 cumulative IPC: 0.520575 (Simulation time: 1 hr 22 min 50 sec) 
Heartbeat CPU 0 instructions: 510000002 cycles: 978229330 heartbeat IPC: 0.517505 cumulative IPC: 0.520515 (Simulation time: 1 hr 24 min 11 sec) 
Heartbeat CPU 0 instructions: 520000000 cycles: 997569761 heartbeat IPC: 0.517051 cumulative IPC: 0.520447 (Simulation time: 1 hr 25 min 33 sec) 
Heartbeat CPU 0 instructions: 530000004 cycles: 1016889943 heartbeat IPC: 0.517594 cumulative IPC: 0.520393 (Simulation time: 1 hr 26 min 54 sec) 
Heartbeat CPU 0 instructions: 540000003 cycles: 1036231798 heartbeat IPC: 0.517013 cumulative IPC: 0.52033 (Simulation time: 1 hr 28 min 16 sec) 
Heartbeat CPU 0 instructions: 550000002 cycles: 1055580407 heartbeat IPC: 0.516833 cumulative IPC: 0.520266 (Simulation time: 1 hr 29 min 37 sec) 
Heartbeat CPU 0 instructions: 560000002 cycles: 1074916517 heartbeat IPC: 0.517167 cumulative IPC: 0.52021 (Simulation time: 1 hr 30 min 58 sec) 
Heartbeat CPU 0 instructions: 570000001 cycles: 1094248341 heartbeat IPC: 0.517282 cumulative IPC: 0.520158 (Simulation time: 1 hr 32 min 20 sec) 
Heartbeat CPU 0 instructions: 580000001 cycles: 1113587312 heartbeat IPC: 0.517091 cumulative IPC: 0.520105 (Simulation time: 1 hr 33 min 41 sec) 
Heartbeat CPU 0 instructions: 590000000 cycles: 1132928076 heartbeat IPC: 0.517043 cumulative IPC: 0.520053 (Simulation time: 1 hr 35 min 2 sec) 
Heartbeat CPU 0 instructions: 600000004 cycles: 1152249657 heartbeat IPC: 0.517556 cumulative IPC: 0.520011 (Simulation time: 1 hr 36 min 23 sec) 
Heartbeat CPU 0 instructions: 610000003 cycles: 1171590029 heartbeat IPC: 0.517053 cumulative IPC: 0.519962 (Simulation time: 1 hr 37 min 45 sec) 
Heartbeat CPU 0 instructions: 620000001 cycles: 1190921779 heartbeat IPC: 0.517284 cumulative IPC: 0.519919 (Simulation time: 1 hr 39 min 6 sec) 
Heartbeat CPU 0 instructions: 630000004 cycles: 1210268580 heartbeat IPC: 0.516881 cumulative IPC: 0.51987 (Simulation time: 1 hr 40 min 27 sec) 
Heartbeat CPU 0 instructions: 640000002 cycles: 1229596451 heartbeat IPC: 0.517387 cumulative IPC: 0.519831 (Simulation time: 1 hr 41 min 49 sec) 
Heartbeat CPU 0 instructions: 650000001 cycles: 1248930945 heartbeat IPC: 0.51721 cumulative IPC: 0.51979 (Simulation time: 1 hr 43 min 10 sec) 
Heartbeat CPU 0 instructions: 660000000 cycles: 1268264343 heartbeat IPC: 0.51724 cumulative IPC: 0.519752 (Simulation time: 1 hr 44 min 31 sec) 
Heartbeat CPU 0 instructions: 670000000 cycles: 1287604332 heartbeat IPC: 0.517063 cumulative IPC: 0.519711 (Simulation time: 1 hr 45 min 53 sec) 
Heartbeat CPU 0 instructions: 680000004 cycles: 1306955886 heartbeat IPC: 0.516755 cumulative IPC: 0.519667 (Simulation time: 1 hr 47 min 14 sec) 
Heartbeat CPU 0 instructions: 690000003 cycles: 1326286970 heartbeat IPC: 0.517301 cumulative IPC: 0.519633 (Simulation time: 1 hr 48 min 35 sec) 
Heartbeat CPU 0 instructions: 700000003 cycles: 1345606869 heartbeat IPC: 0.517601 cumulative IPC: 0.519604 (Simulation time: 1 hr 49 min 56 sec) 
Heartbeat CPU 0 instructions: 710000002 cycles: 1364975691 heartbeat IPC: 0.516294 cumulative IPC: 0.519557 (Simulation time: 1 hr 51 min 18 sec) 
Heartbeat CPU 0 instructions: 720000001 cycles: 1384331960 heartbeat IPC: 0.516628 cumulative IPC: 0.519516 (Simulation time: 1 hr 52 min 39 sec) 
Heartbeat CPU 0 instructions: 730000004 cycles: 1403672893 heartbeat IPC: 0.517038 cumulative IPC: 0.519482 (Simulation time: 1 hr 54 min 1 sec) 
Heartbeat CPU 0 instructions: 740000003 cycles: 1422996316 heartbeat IPC: 0.517507 cumulative IPC: 0.519455 (Simulation time: 1 hr 55 min 22 sec) 
Heartbeat CPU 0 instructions: 750000003 cycles: 1442337984 heartbeat IPC: 0.517018 cumulative IPC: 0.519422 (Simulation time: 1 hr 56 min 43 sec) 
Heartbeat CPU 0 instructions: 760000004 cycles: 1461678948 heartbeat IPC: 0.517037 cumulative IPC: 0.519391 (Simulation time: 1 hr 58 min 4 sec) 
Heartbeat CPU 0 instructions: 770000003 cycles: 1481018190 heartbeat IPC: 0.517083 cumulative IPC: 0.51936 (Simulation time: 1 hr 59 min 26 sec) 
Heartbeat CPU 0 instructions: 780000004 cycles: 1500369400 heartbeat IPC: 0.516764 cumulative IPC: 0.519327 (Simulation time: 2 hr 0 min 47 sec) 
Heartbeat CPU 0 instructions: 790000002 cycles: 1519712859 heartbeat IPC: 0.516971 cumulative IPC: 0.519297 (Simulation time: 2 hr 2 min 8 sec) 
Heartbeat CPU 0 instructions: 800000001 cycles: 1539059188 heartbeat IPC: 0.516894 cumulative IPC: 0.519267 (Simulation time: 2 hr 3 min 30 sec) 
Heartbeat CPU 0 instructions: 810000000 cycles: 1558397982 heartbeat IPC: 0.517095 cumulative IPC: 0.51924 (Simulation time: 2 hr 4 min 51 sec) 
Heartbeat CPU 0 instructions: 820000000 cycles: 1577740210 heartbeat IPC: 0.517004 cumulative IPC: 0.519212 (Simulation time: 2 hr 6 min 12 sec) 
Heartbeat CPU 0 instructions: 830000003 cycles: 1597064322 heartbeat IPC: 0.517488 cumulative IPC: 0.519192 (Simulation time: 2 hr 7 min 34 sec) 
Heartbeat CPU 0 instructions: 840000000 cycles: 1616403097 heartbeat IPC: 0.517096 cumulative IPC: 0.519166 (Simulation time: 2 hr 8 min 55 sec) 
Heartbeat CPU 0 instructions: 850000003 cycles: 1635734128 heartbeat IPC: 0.517303 cumulative IPC: 0.519144 (Simulation time: 2 hr 10 min 17 sec) 
Heartbeat CPU 0 instructions: 860000003 cycles: 1655081333 heartbeat IPC: 0.51687 cumulative IPC: 0.519118 (Simulation time: 2 hr 11 min 38 sec) 
Heartbeat CPU 0 instructions: 870000000 cycles: 1674412095 heartbeat IPC: 0.51731 cumulative IPC: 0.519097 (Simulation time: 2 hr 13 min 0 sec) 
Heartbeat CPU 0 instructions: 880000001 cycles: 1693744334 heartbeat IPC: 0.517271 cumulative IPC: 0.519076 (Simulation time: 2 hr 14 min 21 sec) 
Heartbeat CPU 0 instructions: 890000003 cycles: 1713099349 heartbeat IPC: 0.516662 cumulative IPC: 0.519049 (Simulation time: 2 hr 15 min 42 sec) 
Heartbeat CPU 0 instructions: 900000003 cycles: 1732425762 heartbeat IPC: 0.517427 cumulative IPC: 0.519031 (Simulation time: 2 hr 17 min 4 sec) 
Heartbeat CPU 0 instructions: 910000004 cycles: 1751774875 heartbeat IPC: 0.51682 cumulative IPC: 0.519006 (Simulation time: 2 hr 18 min 25 sec) 
Heartbeat CPU 0 instructions: 920000003 cycles: 1771110104 heartbeat IPC: 0.517191 cumulative IPC: 0.518986 (Simulation time: 2 hr 19 min 46 sec) 
Heartbeat CPU 0 instructions: 930000000 cycles: 1790454602 heartbeat IPC: 0.516943 cumulative IPC: 0.518964 (Simulation time: 2 hr 21 min 8 sec) 
Heartbeat CPU 0 instructions: 940000000 cycles: 1809796622 heartbeat IPC: 0.517009 cumulative IPC: 0.518943 (Simulation time: 2 hr 22 min 29 sec) 
Heartbeat CPU 0 instructions: 950000004 cycles: 1829121443 heartbeat IPC: 0.517469 cumulative IPC: 0.518928 (Simulation time: 2 hr 23 min 50 sec) 
Heartbeat CPU 0 instructions: 960000004 cycles: 1848461786 heartbeat IPC: 0.517054 cumulative IPC: 0.518908 (Simulation time: 2 hr 25 min 12 sec) 
Heartbeat CPU 0 instructions: 970000000 cycles: 1867789244 heartbeat IPC: 0.517398 cumulative IPC: 0.518893 (Simulation time: 2 hr 26 min 33 sec) 
Heartbeat CPU 0 instructions: 980000001 cycles: 1887147908 heartbeat IPC: 0.516565 cumulative IPC: 0.518869 (Simulation time: 2 hr 27 min 54 sec) 
Heartbeat CPU 0 instructions: 990000004 cycles: 1906467781 heartbeat IPC: 0.517602 cumulative IPC: 0.518856 (Simulation time: 2 hr 29 min 16 sec) 
Heartbeat CPU 0 instructions: 1000000001 cycles: 1925810799 heartbeat IPC: 0.516982 cumulative IPC: 0.518837 (Simulation time: 2 hr 30 min 37 sec) 
Finished CPU 0 instructions: 1000000003 cycles: 1927397659 cumulative IPC: 0.518834 (Simulation time: 2 hr 30 min 45 sec) 

ChampSim completed all CPUs

Region of Interest Statistics

CPU 0 cumulative IPC: 0.518834 instructions: 1000000003 cycles: 1927397659
cpu0_DTLB TOTAL     ACCESS:  179255763  HIT:  179022119  MISS:     233644
cpu0_DTLB LOAD      ACCESS:  153367438  HIT:  153135998  MISS:     231440
cpu0_DTLB RFO       ACCESS:   25888325  HIT:   25886121  MISS:       2204
cpu0_DTLB PREFETCH  ACCESS:          0  HIT:          0  MISS:          0
cpu0_DTLB WRITEBACK ACCESS:          0  HIT:          0  MISS:          0
cpu0_DTLB TRANSLATION ACCESS:          0  HIT:          0  MISS:          0
cpu0_DTLB PREFETCH  REQUESTED:          0  ISSUED:          0  USEFUL:          0  USELESS:          0
cpu0_DTLB AVERAGE MISS LATENCY: 131.601 cycles
cpu0_ITLB TOTAL     ACCESS:     349336  HIT:     349325  MISS:         11
cpu0_ITLB LOAD      ACCESS:     349336  HIT:     349325  MISS:         11
cpu0_ITLB RFO       ACCESS:          0  HIT:          0  MISS:          0
cpu0_ITLB PREFETCH  ACCESS:          0  HIT:          0  MISS:          0
cpu0_ITLB WRITEBACK ACCESS:          0  HIT:          0  MISS:          0
cpu0_ITLB TRANSLATION ACCESS:          0  HIT:          0  MISS:          0
cpu0_ITLB PREFETCH  REQUESTED:          0  ISSUED:          0  USEFUL:          0  USELESS:          0
cpu0_ITLB AVERAGE MISS LATENCY: 216.091 cycles
cpu0_L1I TOTAL     ACCESS:     405224  HIT:     404947  MISS:        277
cpu0_L1I LOAD      ACCESS:     405224  HIT:     404947  MISS:        277
cpu0_L1I RFO       ACCESS:          0  HIT:          0  MISS:          0
cpu0_L1I PREFETCH  ACCESS:          0  HIT:          0  MISS:          0
cpu0_L1I WRITEBACK ACCESS:          0  HIT:          0  MISS:          0
cpu0_L1I TRANSLATION ACCESS:          0  HIT:          0  MISS:          0
cpu0_L1I PREFETCH  REQUESTED:          0  ISSUED:          0  USEFUL:          0  USELESS:          0
cpu0_L1I AVERAGE MISS LATENCY: 401.563 cycles
cpu0_STLB TOTAL     ACCESS:     233655  HIT:      96847  MISS:     136808
cpu0_STLB LOAD      ACCESS:     231451  HIT:      94643  MISS:     136808
cpu0_STLB RFO       ACCESS:       2204  HIT:       2204  MISS:          0
cpu0_STLB PREFETCH  ACCESS:          0  HIT:          0  MISS:          0
cpu0_STLB WRITEBACK ACCESS:          0  HIT:          0  MISS:          0
cpu0_STLB TRANSLATION ACCESS:          0  HIT:          0  MISS:          0
cpu0_STLB PREFETCH  REQUESTED:          0  ISSUED:          0  USEFUL:          0  USELESS:          0
cpu0_STLB AVERAGE MISS LATENCY: 209.371 cycles
cpu0_L1D TOTAL     ACCESS:  362336464  HIT:  348890541  MISS:   13445923
cpu0_L1D LOAD      ACCESS:  158982541  HIT:  152794705  MISS:    6187836
cpu0_L1D RFO       ACCESS:   70279864  HIT:   70264974  MISS:      14890
cpu0_L1D PREFETCH  ACCESS:  132937253  HIT:  125698693  MISS:    7238560
cpu0_L1D WRITEBACK ACCESS:          0  HIT:          0  MISS:          0
cpu0_L1D TRANSLATION ACCESS:     136806  HIT:     132169  MISS:       4637
cpu0_L1D PREFETCH  REQUESTED:  165776443  ISSUED:  160552489  USEFUL:   12958489  USELESS:     167168
cpu0_L1D AVERAGE MISS LATENCY: 127.117 cycles
cpu0_L2C TOTAL     ACCESS:   24206056  HIT:   10866235  MISS:   13339821
cpu0_L2C LOAD      ACCESS:     301013  HIT:      17181  MISS:     283832
cpu0_L2C RFO       ACCESS:      14890  HIT:       2000  MISS:      12890
cpu0_L2C PREFETCH  ACCESS:   15128862  HIT:    2090345  MISS:   13038517
cpu0_L2C WRITEBACK ACCESS:    8756654  HIT:    8756646  MISS:          8
cpu0_L2C TRANSLATION ACCESS:       4637  HIT:         63  MISS:       4574
cpu0_L2C PREFETCH  REQUESTED:    2004624  ISSUED:    2004624  USEFUL:     202651  USELESS:       4852
cpu0_L2C AVERAGE MISS LATENCY: 367.967 cycles
LLC TOTAL     ACCESS:   22091290  HIT:   13007547  MISS:    9083743
LLC LOAD      ACCESS:     283831  HIT:     120293  MISS:     163538
LLC RFO       ACCESS:      12890  HIT:      12884  MISS:          6
LLC PREFETCH  ACCESS:   13038598  HIT:    4118664  MISS:    8919934
LLC WRITEBACK ACCESS:    8751397  HIT:    8751397  MISS:          0
LLC TRANSLATION ACCESS:       4574  HIT:       4309  MISS:        265
LLC PREFETCH  REQUESTED:          0  ISSUED:          0  USEFUL:          0  USELESS:          0
LLC AVERAGE MISS LATENCY: 500.726 cycles

DRAM Statistics
 CHANNEL 0
 RQ ROW_BUFFER_HIT:     293993  ROW_BUFFER_MISS:    8789750
 DBUS AVG_CONGESTED_CYCLE:    3.99155
 WQ ROW_BUFFER_HIT:     899515  ROW_BUFFER_MISS:    7814584  FULL:          0


CPU 0 Branch Prediction Accuracy: 99.865% MPKI: 0.024349 Average ROB Occupancy at Mispredict: 99.7955
Branch type MPKI
BRANCH_DIRECT_JUMP: 8.9e-05
BRANCH_INDIRECT: 0
BRANCH_CONDITIONAL: 0.024228
BRANCH_DIRECT_CALL: 1.6e-05
BRANCH_INDIRECT_CALL: 0
BRANCH_RETURN: 1.6e-05

