
*** ChampSim Multicore Out-of-Order Simulator ***

Warmup Instructions: 1000000
Simulation Instructions: 1000000000
Number of CPUs: 1
Off-chip DRAM Size: 4 GiB Channels: 1 Width: 64-bit Data Rate: 3200 MT/s

VirtualMemory physical capacity: 8588881920 num_ppages: 2096895
VirtualMemory page size: 4096 log2_page_size: 12

CPU 0 runs tracer/pin/traces/spec2k17/600.perlbench_s-210B.champsimtrace.xz
Basic BTB sets: 1024 ways: 8 indirect buffer size: 4096 RAS size: 64
cpu0_L1D next line prefetcher
cpu0_L2C IP-based stride prefetcher
WARNING: The extended signature CACHE::prefetch_line(ip, base_addr, pf_addr, fill_this_level, prefetch_metadata) is deprecated.
WARNING: Use CACHE::prefetch_line(pf_addr, fill_this_level, prefetch_metadata) instead.

Warmup complete CPU 0 instructions: 1000005 cycles: 250978 (Simulation time: 0 hr 0 min 4 sec) 

Heartbeat CPU 0 instructions: 10000000 cycles: 5199667 heartbeat IPC: 1.9232 cumulative IPC: 1.81866 (Simulation time: 0 hr 0 min 52 sec) 
Heartbeat CPU 0 instructions: 20000002 cycles: 10273966 heartbeat IPC: 1.97072 cumulative IPC: 1.89564 (Simulation time: 0 hr 1 min 47 sec) 
Heartbeat CPU 0 instructions: 30000000 cycles: 15378649 heartbeat IPC: 1.95899 cumulative IPC: 1.91702 (Simulation time: 0 hr 2 min 42 sec) 
Heartbeat CPU 0 instructions: 40000002 cycles: 20535921 heartbeat IPC: 1.93901 cumulative IPC: 1.92261 (Simulation time: 0 hr 3 min 35 sec) 
Heartbeat CPU 0 instructions: 50000002 cycles: 25675744 heartbeat IPC: 1.94559 cumulative IPC: 1.92725 (Simulation time: 0 hr 4 min 32 sec) 
Heartbeat CPU 0 instructions: 60000004 cycles: 30837221 heartbeat IPC: 1.93743 cumulative IPC: 1.92897 (Simulation time: 0 hr 5 min 28 sec) 
Heartbeat CPU 0 instructions: 70000003 cycles: 35447740 heartbeat IPC: 2.16895 cumulative IPC: 1.96041 (Simulation time: 0 hr 6 min 20 sec) 
Heartbeat CPU 0 instructions: 80000000 cycles: 40095182 heartbeat IPC: 2.15172 cumulative IPC: 1.98272 (Simulation time: 0 hr 7 min 14 sec) 
Heartbeat CPU 0 instructions: 90000004 cycles: 45235366 heartbeat IPC: 1.94546 cumulative IPC: 1.97846 (Simulation time: 0 hr 8 min 11 sec) 
Heartbeat CPU 0 instructions: 100000004 cycles: 50297848 heartbeat IPC: 1.97532 cumulative IPC: 1.97815 (Simulation time: 0 hr 9 min 9 sec) 
Heartbeat CPU 0 instructions: 110000001 cycles: 55431024 heartbeat IPC: 1.94811 cumulative IPC: 1.97535 (Simulation time: 0 hr 10 min 5 sec) 
Heartbeat CPU 0 instructions: 120000003 cycles: 60509899 heartbeat IPC: 1.96894 cumulative IPC: 1.97481 (Simulation time: 0 hr 11 min 2 sec) 
Heartbeat CPU 0 instructions: 130000001 cycles: 65732198 heartbeat IPC: 1.91487 cumulative IPC: 1.97003 (Simulation time: 0 hr 12 min 2 sec) 
Heartbeat CPU 0 instructions: 140000002 cycles: 71071294 heartbeat IPC: 1.87298 cumulative IPC: 1.96271 (Simulation time: 0 hr 12 min 58 sec) 
Heartbeat CPU 0 instructions: 150000003 cycles: 76363982 heartbeat IPC: 1.8894 cumulative IPC: 1.95762 (Simulation time: 0 hr 13 min 56 sec) 
Heartbeat CPU 0 instructions: 160000002 cycles: 81422085 heartbeat IPC: 1.97703 cumulative IPC: 1.95882 (Simulation time: 0 hr 14 min 50 sec) 
Heartbeat CPU 0 instructions: 170000000 cycles: 86667607 heartbeat IPC: 1.90639 cumulative IPC: 1.95564 (Simulation time: 0 hr 15 min 48 sec) 
Heartbeat CPU 0 instructions: 180000001 cycles: 91554861 heartbeat IPC: 2.04614 cumulative IPC: 1.96049 (Simulation time: 0 hr 16 min 43 sec) 
Heartbeat CPU 0 instructions: 190000000 cycles: 96786517 heartbeat IPC: 1.91144 cumulative IPC: 1.95783 (Simulation time: 0 hr 17 min 38 sec) 
Heartbeat CPU 0 instructions: 200000002 cycles: 102214805 heartbeat IPC: 1.8422 cumulative IPC: 1.95167 (Simulation time: 0 hr 18 min 39 sec) 
Heartbeat CPU 0 instructions: 210000003 cycles: 107438368 heartbeat IPC: 1.9144 cumulative IPC: 1.94986 (Simulation time: 0 hr 19 min 37 sec) 
Heartbeat CPU 0 instructions: 220000001 cycles: 112640662 heartbeat IPC: 1.92223 cumulative IPC: 1.94858 (Simulation time: 0 hr 20 min 37 sec) 
Heartbeat CPU 0 instructions: 230000003 cycles: 117776540 heartbeat IPC: 1.94709 cumulative IPC: 1.94851 (Simulation time: 0 hr 21 min 37 sec) 
Heartbeat CPU 0 instructions: 240000003 cycles: 122901792 heartbeat IPC: 1.95112 cumulative IPC: 1.94862 (Simulation time: 0 hr 22 min 37 sec) 
Heartbeat CPU 0 instructions: 250000002 cycles: 127614229 heartbeat IPC: 2.12204 cumulative IPC: 1.95504 (Simulation time: 0 hr 23 min 31 sec) 
Heartbeat CPU 0 instructions: 260000001 cycles: 132696537 heartbeat IPC: 1.96761 cumulative IPC: 1.95552 (Simulation time: 0 hr 24 min 31 sec) 
Heartbeat CPU 0 instructions: 270000002 cycles: 137762208 heartbeat IPC: 1.97407 cumulative IPC: 1.9562 (Simulation time: 0 hr 25 min 28 sec) 
Heartbeat CPU 0 instructions: 280000003 cycles: 142856457 heartbeat IPC: 1.963 cumulative IPC: 1.95645 (Simulation time: 0 hr 26 min 24 sec) 
Heartbeat CPU 0 instructions: 290000000 cycles: 147844327 heartbeat IPC: 2.00486 cumulative IPC: 1.95808 (Simulation time: 0 hr 27 min 22 sec) 
Heartbeat CPU 0 instructions: 300000003 cycles: 153236214 heartbeat IPC: 1.85464 cumulative IPC: 1.95444 (Simulation time: 0 hr 28 min 21 sec) 
Heartbeat CPU 0 instructions: 310000002 cycles: 158490428 heartbeat IPC: 1.90323 cumulative IPC: 1.95274 (Simulation time: 0 hr 29 min 18 sec) 
Heartbeat CPU 0 instructions: 320000002 cycles: 163541966 heartbeat IPC: 1.9796 cumulative IPC: 1.95357 (Simulation time: 0 hr 30 min 14 sec) 
Heartbeat CPU 0 instructions: 330000004 cycles: 168385279 heartbeat IPC: 2.0647 cumulative IPC: 1.95677 (Simulation time: 0 hr 31 min 8 sec) 
Heartbeat CPU 0 instructions: 340000002 cycles: 173478522 heartbeat IPC: 1.96339 cumulative IPC: 1.95696 (Simulation time: 0 hr 32 min 2 sec) 
Heartbeat CPU 0 instructions: 350000003 cycles: 178679855 heartbeat IPC: 1.92258 cumulative IPC: 1.95596 (Simulation time: 0 hr 32 min 55 sec) 
Heartbeat CPU 0 instructions: 360000002 cycles: 183867488 heartbeat IPC: 1.92766 cumulative IPC: 1.95516 (Simulation time: 0 hr 33 min 53 sec) 
Heartbeat CPU 0 instructions: 370000001 cycles: 188950773 heartbeat IPC: 1.96723 cumulative IPC: 1.95549 (Simulation time: 0 hr 34 min 49 sec) 
Heartbeat CPU 0 instructions: 380000000 cycles: 194118741 heartbeat IPC: 1.935 cumulative IPC: 1.95494 (Simulation time: 0 hr 35 min 47 sec) 
Heartbeat CPU 0 instructions: 390000000 cycles: 199313195 heartbeat IPC: 1.92513 cumulative IPC: 1.95416 (Simulation time: 0 hr 36 min 48 sec) 
Heartbeat CPU 0 instructions: 400000001 cycles: 204435726 heartbeat IPC: 1.95216 cumulative IPC: 1.95411 (Simulation time: 0 hr 37 min 48 sec) 
Heartbeat CPU 0 instructions: 410000000 cycles: 209107695 heartbeat IPC: 2.14042 cumulative IPC: 1.95828 (Simulation time: 0 hr 38 min 44 sec) 
Heartbeat CPU 0 instructions: 420000001 cycles: 214133913 heartbeat IPC: 1.98957 cumulative IPC: 1.95902 (Simulation time: 0 hr 39 min 40 sec) 
Heartbeat CPU 0 instructions: 430000000 cycles: 219342618 heartbeat IPC: 1.91986 cumulative IPC: 1.95808 (Simulation time: 0 hr 40 min 35 sec) 
Heartbeat CPU 0 instructions: 440000000 cycles: 224579669 heartbeat IPC: 1.90947 cumulative IPC: 1.95695 (Simulation time: 0 hr 41 min 34 sec) 
Heartbeat CPU 0 instructions: 450000000 cycles: 229586879 heartbeat IPC: 1.99712 cumulative IPC: 1.95783 (Simulation time: 0 hr 42 min 29 sec) 
Heartbeat CPU 0 instructions: 460000000 cycles: 234877238 heartbeat IPC: 1.89023 cumulative IPC: 1.9563 (Simulation time: 0 hr 43 min 29 sec) 
Heartbeat CPU 0 instructions: 470000001 cycles: 243791106 heartbeat IPC: 1.12185 cumulative IPC: 1.92576 (Simulation time: 0 hr 44 min 36 sec) 
Heartbeat CPU 0 instructions: 480000002 cycles: 251526017 heartbeat IPC: 1.29284 cumulative IPC: 1.90628 (Simulation time: 0 hr 45 min 37 sec) 
Heartbeat CPU 0 instructions: 490000001 cycles: 257248680 heartbeat IPC: 1.74744 cumulative IPC: 1.90274 (Simulation time: 0 hr 46 min 32 sec) 
Heartbeat CPU 0 instructions: 500000003 cycles: 263341414 heartbeat IPC: 1.6413 cumulative IPC: 1.89669 (Simulation time: 0 hr 47 min 32 sec) 
Heartbeat CPU 0 instructions: 510000001 cycles: 273070748 heartbeat IPC: 1.02782 cumulative IPC: 1.8657 (Simulation time: 0 hr 48 min 33 sec) 
Heartbeat CPU 0 instructions: 520000001 cycles: 287203150 heartbeat IPC: 0.707594 cumulative IPC: 1.80866 (Simulation time: 0 hr 49 min 51 sec) 
Heartbeat CPU 0 instructions: 530000003 cycles: 298952699 heartbeat IPC: 0.851097 cumulative IPC: 1.771 (Simulation time: 0 hr 51 min 1 sec) 
Heartbeat CPU 0 instructions: 540000001 cycles: 309701931 heartbeat IPC: 0.930299 cumulative IPC: 1.74179 (Simulation time: 0 hr 52 min 8 sec) 
Heartbeat CPU 0 instructions: 550000002 cycles: 323727161 heartbeat IPC: 0.713001 cumulative IPC: 1.69719 (Simulation time: 0 hr 53 min 25 sec) 
Heartbeat CPU 0 instructions: 560000000 cycles: 329911488 heartbeat IPC: 1.61699 cumulative IPC: 1.69568 (Simulation time: 0 hr 54 min 26 sec) 
Heartbeat CPU 0 instructions: 570000000 cycles: 335812116 heartbeat IPC: 1.69473 cumulative IPC: 1.69567 (Simulation time: 0 hr 55 min 24 sec) 
Heartbeat CPU 0 instructions: 580000000 cycles: 342075226 heartbeat IPC: 1.59665 cumulative IPC: 1.69385 (Simulation time: 0 hr 56 min 27 sec) 
Heartbeat CPU 0 instructions: 590000001 cycles: 348367571 heartbeat IPC: 1.58923 cumulative IPC: 1.69196 (Simulation time: 0 hr 57 min 28 sec) 
Heartbeat CPU 0 instructions: 600000000 cycles: 359318000 heartbeat IPC: 0.913206 cumulative IPC: 1.66821 (Simulation time: 0 hr 58 min 40 sec) 
Heartbeat CPU 0 instructions: 610000000 cycles: 372535850 heartbeat IPC: 0.756553 cumulative IPC: 1.63584 (Simulation time: 0 hr 59 min 55 sec) 
Heartbeat CPU 0 instructions: 620000001 cycles: 385593321 heartbeat IPC: 0.765845 cumulative IPC: 1.60636 (Simulation time: 1 hr 1 min 9 sec) 
Heartbeat CPU 0 instructions: 630000002 cycles: 396146061 heartbeat IPC: 0.947621 cumulative IPC: 1.5888 (Simulation time: 1 hr 2 min 26 sec) 
Heartbeat CPU 0 instructions: 640000000 cycles: 407932725 heartbeat IPC: 0.848416 cumulative IPC: 1.5674 (Simulation time: 1 hr 3 min 45 sec) 
Heartbeat CPU 0 instructions: 650000000 cycles: 421705340 heartbeat IPC: 0.726079 cumulative IPC: 1.53991 (Simulation time: 1 hr 5 min 2 sec) 
Heartbeat CPU 0 instructions: 660000000 cycles: 434985088 heartbeat IPC: 0.753026 cumulative IPC: 1.51587 (Simulation time: 1 hr 6 min 18 sec) 
Heartbeat CPU 0 instructions: 670000003 cycles: 443961344 heartbeat IPC: 1.11405 cumulative IPC: 1.50774 (Simulation time: 1 hr 7 min 31 sec) 
Heartbeat CPU 0 instructions: 680000000 cycles: 460240478 heartbeat IPC: 0.614283 cumulative IPC: 1.47612 (Simulation time: 1 hr 8 min 58 sec) 
Heartbeat CPU 0 instructions: 690000004 cycles: 474017625 heartbeat IPC: 0.72584 cumulative IPC: 1.4543 (Simulation time: 1 hr 10 min 17 sec) 
Heartbeat CPU 0 instructions: 700000001 cycles: 478975976 heartbeat IPC: 2.0168 cumulative IPC: 1.46013 (Simulation time: 1 hr 11 min 16 sec) 
Heartbeat CPU 0 instructions: 710000003 cycles: 484014274 heartbeat IPC: 1.9848 cumulative IPC: 1.46559 (Simulation time: 1 hr 12 min 13 sec) 
Heartbeat CPU 0 instructions: 720000001 cycles: 489114093 heartbeat IPC: 1.96085 cumulative IPC: 1.47076 (Simulation time: 1 hr 13 min 9 sec) 
Heartbeat CPU 0 instructions: 730000002 cycles: 494152295 heartbeat IPC: 1.98484 cumulative IPC: 1.476 (Simulation time: 1 hr 14 min 5 sec) 
Heartbeat CPU 0 instructions: 740000002 cycles: 499129928 heartbeat IPC: 2.00899 cumulative IPC: 1.48132 (Simulation time: 1 hr 15 min 3 sec) 
Heartbeat CPU 0 instructions: 750000003 cycles: 504080325 heartbeat IPC: 2.02004 cumulative IPC: 1.48661 (Simulation time: 1 hr 16 min 3 sec) 
Heartbeat CPU 0 instructions: 760000001 cycles: 509168308 heartbeat IPC: 1.96542 cumulative IPC: 1.4914 (Simulation time: 1 hr 17 min 1 sec) 
Heartbeat CPU 0 instructions: 770000002 cycles: 514143927 heartbeat IPC: 2.0098 cumulative IPC: 1.49642 (Simulation time: 1 hr 17 min 56 sec) 
Heartbeat CPU 0 instructions: 780000002 cycles: 519190424 heartbeat IPC: 1.98157 cumulative IPC: 1.50114 (Simulation time: 1 hr 18 min 50 sec) 
Heartbeat CPU 0 instructions: 790000004 cycles: 524195880 heartbeat IPC: 1.99782 cumulative IPC: 1.50588 (Simulation time: 1 hr 19 min 46 sec) 
Heartbeat CPU 0 instructions: 800000004 cycles: 529197974 heartbeat IPC: 1.99916 cumulative IPC: 1.51055 (Simulation time: 1 hr 20 min 41 sec) 
Heartbeat CPU 0 instructions: 810000001 cycles: 534215852 heartbeat IPC: 1.99287 cumulative IPC: 1.51508 (Simulation time: 1 hr 21 min 38 sec) 
Heartbeat CPU 0 instructions: 820000000 cycles: 538861247 heartbeat IPC: 2.15267 cumulative IPC: 1.52058 (Simulation time: 1 hr 22 min 28 sec) 
Heartbeat CPU 0 instructions: 830000004 cycles: 543451121 heartbeat IPC: 2.17871 cumulative IPC: 1.52614 (Simulation time: 1 hr 23 min 18 sec) 
Heartbeat CPU 0 instructions: 840000003 cycles: 548376486 heartbeat IPC: 2.03031 cumulative IPC: 1.53067 (Simulation time: 1 hr 24 min 14 sec) 
Heartbeat CPU 0 instructions: 850000001 cycles: 553308311 heartbeat IPC: 2.02765 cumulative IPC: 1.5351 (Simulation time: 1 hr 25 min 8 sec) 
Heartbeat CPU 0 instructions: 860000000 cycles: 558335829 heartbeat IPC: 1.98905 cumulative IPC: 1.53919 (Simulation time: 1 hr 26 min 3 sec) 
Heartbeat CPU 0 instructions: 870000004 cycles: 563397599 heartbeat IPC: 1.97559 cumulative IPC: 1.54312 (Simulation time: 1 hr 26 min 58 sec) 
Heartbeat CPU 0 instructions: 880000002 cycles: 568420922 heartbeat IPC: 1.99071 cumulative IPC: 1.54707 (Simulation time: 1 hr 27 min 54 sec) 
Heartbeat CPU 0 instructions: 890000001 cycles: 573455691 heartbeat IPC: 1.98619 cumulative IPC: 1.55093 (Simulation time: 1 hr 28 min 51 sec) 
Heartbeat CPU 0 instructions: 900000001 cycles: 578406825 heartbeat IPC: 2.01974 cumulative IPC: 1.55494 (Simulation time: 1 hr 29 min 47 sec) 
Heartbeat CPU 0 instructions: 910000002 cycles: 583393811 heartbeat IPC: 2.00522 cumulative IPC: 1.55879 (Simulation time: 1 hr 30 min 37 sec) 
Heartbeat CPU 0 instructions: 920000001 cycles: 588455162 heartbeat IPC: 1.97576 cumulative IPC: 1.56238 (Simulation time: 1 hr 31 min 29 sec) 
Heartbeat CPU 0 instructions: 930000002 cycles: 593348019 heartbeat IPC: 2.0438 cumulative IPC: 1.56635 (Simulation time: 1 hr 32 min 23 sec) 
Heartbeat CPU 0 instructions: 940000002 cycles: 598473609 heartbeat IPC: 1.95099 cumulative IPC: 1.56965 (Simulation time: 1 hr 33 min 16 sec) 
Heartbeat CPU 0 instructions: 950000003 cycles: 603765036 heartbeat IPC: 1.88985 cumulative IPC: 1.57246 (Simulation time: 1 hr 34 min 12 sec) 
Heartbeat CPU 0 instructions: 960000000 cycles: 608696586 heartbeat IPC: 2.02776 cumulative IPC: 1.57615 (Simulation time: 1 hr 35 min 8 sec) 
Heartbeat CPU 0 instructions: 970000000 cycles: 613663201 heartbeat IPC: 2.01344 cumulative IPC: 1.57969 (Simulation time: 1 hr 36 min 2 sec) 
Heartbeat CPU 0 instructions: 980000000 cycles: 618769776 heartbeat IPC: 1.95826 cumulative IPC: 1.58281 (Simulation time: 1 hr 36 min 54 sec) 
Heartbeat CPU 0 instructions: 990000004 cycles: 623728587 heartbeat IPC: 2.01661 cumulative IPC: 1.58626 (Simulation time: 1 hr 37 min 49 sec) 
Heartbeat CPU 0 instructions: 1000000000 cycles: 628585447 heartbeat IPC: 2.05894 cumulative IPC: 1.58992 (Simulation time: 1 hr 38 min 41 sec) 
Finished CPU 0 instructions: 1000000001 cycles: 628812585 cumulative IPC: 1.5903 (Simulation time: 1 hr 38 min 46 sec) 

ChampSim completed all CPUs

Region of Interest Statistics

CPU 0 cumulative IPC: 1.5903 instructions: 1000000001 cycles: 628812585
cpu0_DTLB TOTAL     ACCESS:  196176189  HIT:  195083399  MISS:    1092790
cpu0_DTLB LOAD      ACCESS:  113941822  HIT:  112953551  MISS:     988271
cpu0_DTLB RFO       ACCESS:   82234367  HIT:   82129848  MISS:     104519
cpu0_DTLB PREFETCH  ACCESS:          0  HIT:          0  MISS:          0
cpu0_DTLB WRITEBACK ACCESS:          0  HIT:          0  MISS:          0
cpu0_DTLB TRANSLATION ACCESS:          0  HIT:          0  MISS:          0
cpu0_DTLB PREFETCH  REQUESTED:          0  ISSUED:          0  USEFUL:          0  USELESS:          0
cpu0_DTLB AVERAGE MISS LATENCY: 10.3571 cycles
cpu0_ITLB TOTAL     ACCESS:   58085209  HIT:   57966773  MISS:     118436
cpu0_ITLB LOAD      ACCESS:   58085209  HIT:   57966773  MISS:     118436
cpu0_ITLB RFO       ACCESS:          0  HIT:          0  MISS:          0
cpu0_ITLB PREFETCH  ACCESS:          0  HIT:          0  MISS:          0
cpu0_ITLB WRITEBACK ACCESS:          0  HIT:          0  MISS:          0
cpu0_ITLB TRANSLATION ACCESS:          0  HIT:          0  MISS:          0
cpu0_ITLB PREFETCH  REQUESTED:          0  ISSUED:          0  USEFUL:          0  USELESS:          0
cpu0_ITLB AVERAGE MISS LATENCY: 9.50719 cycles
cpu0_L1I TOTAL     ACCESS:   80609818  HIT:   79028984  MISS:    1580834
cpu0_L1I LOAD      ACCESS:   80609818  HIT:   79028984  MISS:    1580834
cpu0_L1I RFO       ACCESS:          0  HIT:          0  MISS:          0
cpu0_L1I PREFETCH  ACCESS:          0  HIT:          0  MISS:          0
cpu0_L1I WRITEBACK ACCESS:          0  HIT:          0  MISS:          0
cpu0_L1I TRANSLATION ACCESS:          0  HIT:          0  MISS:          0
cpu0_L1I PREFETCH  REQUESTED:          0  ISSUED:          0  USEFUL:          0  USELESS:          0
cpu0_L1I AVERAGE MISS LATENCY: 20.6962 cycles
cpu0_STLB TOTAL     ACCESS:    1211226  HIT:    1177530  MISS:      33696
cpu0_STLB LOAD      ACCESS:    1106707  HIT:    1076875  MISS:      29832
cpu0_STLB RFO       ACCESS:     104519  HIT:     100655  MISS:       3864
cpu0_STLB PREFETCH  ACCESS:          0  HIT:          0  MISS:          0
cpu0_STLB WRITEBACK ACCESS:          0  HIT:          0  MISS:          0
cpu0_STLB TRANSLATION ACCESS:          0  HIT:          0  MISS:          0
cpu0_STLB PREFETCH  REQUESTED:          0  ISSUED:          0  USEFUL:          0  USELESS:          0
cpu0_STLB AVERAGE MISS LATENCY: 45.1172 cycles
cpu0_L1D TOTAL     ACCESS:  480362070  HIT:  477772019  MISS:    2590051
cpu0_L1D LOAD      ACCESS:  136941843  HIT:  135715196  MISS:    1226647
cpu0_L1D RFO       ACCESS:  208621152  HIT:  208498580  MISS:     122572
cpu0_L1D PREFETCH  ACCESS:  134765563  HIT:  133531964  MISS:    1233599
cpu0_L1D WRITEBACK ACCESS:          0  HIT:          0  MISS:          0
cpu0_L1D TRANSLATION ACCESS:      33512  HIT:      26279  MISS:       7233
cpu0_L1D PREFETCH  REQUESTED:  137047129  ISSUED:  135140017  USEFUL:     984114  USELESS:     285185
cpu0_L1D AVERAGE MISS LATENCY: 70.8145 cycles
cpu0_L2C TOTAL     ACCESS:    4863278  HIT:    3770455  MISS:    1092823
cpu0_L2C LOAD      ACCESS:    2772402  HIT:    2149367  MISS:     623035
cpu0_L2C RFO       ACCESS:     121445  HIT:      82701  MISS:      38744
cpu0_L2C PREFETCH  ACCESS:    1492377  HIT:    1067512  MISS:     424865
cpu0_L2C WRITEBACK ACCESS:     469821  HIT:     464407  MISS:       5414
cpu0_L2C TRANSLATION ACCESS:       7233  HIT:       6468  MISS:        765
cpu0_L2C PREFETCH  REQUESTED:     236429  ISSUED:     226117  USEFUL:      11741  USELESS:      16375
cpu0_L2C AVERAGE MISS LATENCY: 160.178 cycles
LLC TOTAL     ACCESS:    1238878  HIT:     772047  MISS:     466831
LLC LOAD      ACCESS:     623025  HIT:     395590  MISS:     227435
LLC RFO       ACCESS:      38744  HIT:      19535  MISS:      19209
LLC PREFETCH  ACCESS:     424959  HIT:     205383  MISS:     219576
LLC WRITEBACK ACCESS:     151385  HIT:     150814  MISS:        571
LLC TRANSLATION ACCESS:        765  HIT:        725  MISS:         40
LLC PREFETCH  REQUESTED:          0  ISSUED:          0  USEFUL:          0  USELESS:          0
LLC AVERAGE MISS LATENCY: 312.23 cycles

DRAM Statistics
 CHANNEL 0
 RQ ROW_BUFFER_HIT:      42147  ROW_BUFFER_MISS:     424086
 DBUS AVG_CONGESTED_CYCLE:     3.6295
 WQ ROW_BUFFER_HIT:      22192  ROW_BUFFER_MISS:      41092  FULL:          0


CPU 0 Branch Prediction Accuracy: 97.4562% MPKI: 3.77512 Average ROB Occupancy at Mispredict: 75.6979
Branch type MPKI
BRANCH_DIRECT_JUMP: 0.001867
BRANCH_INDIRECT: 0.329909
BRANCH_CONDITIONAL: 3.30117
BRANCH_DIRECT_CALL: 0.001896
BRANCH_INDIRECT_CALL: 0.134225
BRANCH_RETURN: 0.00605

