
*** ChampSim Multicore Out-of-Order Simulator ***

Warmup Instructions: 1000000
Simulation Instructions: 1000000000
Number of CPUs: 1
Off-chip DRAM Size: 4 GiB Channels: 1 Width: 64-bit Data Rate: 3200 MT/s

VirtualMemory physical capacity: 8588881920 num_ppages: 2096895
VirtualMemory page size: 4096 log2_page_size: 12

CPU 0 runs tracer/pin/traces/spec2k6/447.dealII-3B.champsimtrace.xz
Basic BTB sets: 1024 ways: 8 indirect buffer size: 4096 RAS size: 64
cpu0_L1D next line prefetcher
cpu0_L2C IP-based stride prefetcher
WARNING: The extended signature CACHE::prefetch_line(ip, base_addr, pf_addr, fill_this_level, prefetch_metadata) is deprecated.
WARNING: Use CACHE::prefetch_line(pf_addr, fill_this_level, prefetch_metadata) instead.

Warmup complete CPU 0 instructions: 1000003 cycles: 330343 (Simulation time: 0 hr 0 min 3 sec) 

Heartbeat CPU 0 instructions: 10000002 cycles: 9187555 heartbeat IPC: 1.08843 cumulative IPC: 1.01612 (Simulation time: 0 hr 0 min 42 sec) 
Heartbeat CPU 0 instructions: 20000000 cycles: 18964386 heartbeat IPC: 1.02283 cumulative IPC: 1.01964 (Simulation time: 0 hr 1 min 25 sec) 
Heartbeat CPU 0 instructions: 30000000 cycles: 27698005 heartbeat IPC: 1.145 cumulative IPC: 1.05964 (Simulation time: 0 hr 2 min 7 sec) 
Heartbeat CPU 0 instructions: 40000003 cycles: 34682953 heartbeat IPC: 1.43165 cumulative IPC: 1.13528 (Simulation time: 0 hr 2 min 48 sec) 
Heartbeat CPU 0 instructions: 50000001 cycles: 44549232 heartbeat IPC: 1.01355 cumulative IPC: 1.10812 (Simulation time: 0 hr 3 min 31 sec) 
Caught signal: 2
nstructions: 60000004 cycles: 54317370 heartbeat IPC: 1.02374 cumulative IPC: 1.09286 (Simulation time: 0 hr 4 min 15 sec) 
Heartbeat CPU 0 instructions: 70000002 cycles: 63148078 heartbeat IPC: 1.13241 cumulative IPC: 1.09842 (Simulation time: 0 hr 4 min 57 sec) 
Heartbeat CPU 0 instructions: 80000001 cycles: 73175435 heartbeat IPC: 0.997272 cumulative IPC: 1.08449 (Simulation time: 0 hr 5 min 40 sec) 
Heartbeat CPU 0 instructions: 90000003 cycles: 82356518 heartbeat IPC: 1.0892 cumulative IPC: 1.08502 (Simulation time: 0 hr 6 min 23 sec) 
Heartbeat CPU 0 instructions: 100000002 cycles: 90074750 heartbeat IPC: 1.29563 cumulative IPC: 1.10313 (Simulation time: 0 hr 6 min 57 sec) 
Heartbeat CPU 0 instructions: 110000001 cycles: 93092937 heartbeat IPC: 3.31325 cumulative IPC: 1.17504 (Simulation time: 0 hr 7 min 25 sec) 
Heartbeat CPU 0 instructions: 120000000 cycles: 96324498 heartbeat IPC: 3.09448 cumulative IPC: 1.23966 (Simulation time: 0 hr 7 min 53 sec) 
Heartbeat CPU 0 instructions: 130000004 cycles: 102698485 heartbeat IPC: 1.56888 cumulative IPC: 1.26016 (Simulation time: 0 hr 8 min 24 sec) 
Heartbeat CPU 0 instructions: 140000003 cycles: 105732522 heartbeat IPC: 3.29594 cumulative IPC: 1.31876 (Simulation time: 0 hr 8 min 52 sec) 
Heartbeat CPU 0 instructions: 150000000 cycles: 110534562 heartbeat IPC: 2.08245 cumulative IPC: 1.35204 (Simulation time: 0 hr 9 min 22 sec) 
Heartbeat CPU 0 instructions: 160000001 cycles: 115337777 heartbeat IPC: 2.08194 cumulative IPC: 1.38252 (Simulation time: 0 hr 9 min 52 sec) 
Heartbeat CPU 0 instructions: 170000000 cycles: 118348884 heartbeat IPC: 3.32104 cumulative IPC: 1.43198 (Simulation time: 0 hr 10 min 20 sec) 
Heartbeat CPU 0 instructions: 180000004 cycles: 124710383 heartbeat IPC: 1.57196 cumulative IPC: 1.43914 (Simulation time: 0 hr 10 min 51 sec) 
Heartbeat CPU 0 instructions: 190000003 cycles: 127953833 heartbeat IPC: 3.08314 cumulative IPC: 1.48092 (Simulation time: 0 hr 11 min 19 sec) 
Heartbeat CPU 0 instructions: 200000002 cycles: 130960816 heartbeat IPC: 3.32559 cumulative IPC: 1.52338 (Simulation time: 0 hr 11 min 47 sec) 
Heartbeat CPU 0 instructions: 210000000 cycles: 137533001 heartbeat IPC: 1.52156 cumulative IPC: 1.52329 (Simulation time: 0 hr 12 min 18 sec) 
Heartbeat CPU 0 instructions: 220000000 cycles: 140555789 heartbeat IPC: 3.3082 cumulative IPC: 1.56177 (Simulation time: 0 hr 12 min 46 sec) 
Heartbeat CPU 0 instructions: 230000000 cycles: 144871840 heartbeat IPC: 2.31693 cumulative IPC: 1.58432 (Simulation time: 0 hr 13 min 15 sec) 
Heartbeat CPU 0 instructions: 240000003 cycles: 150159337 heartbeat IPC: 1.89125 cumulative IPC: 1.59515 (Simulation time: 0 hr 13 min 45 sec) 
Heartbeat CPU 0 instructions: 250000002 cycles: 153189492 heartbeat IPC: 3.30016 cumulative IPC: 1.62895 (Simulation time: 0 hr 14 min 13 sec) 
Heartbeat CPU 0 instructions: 260000001 cycles: 159083309 heartbeat IPC: 1.69669 cumulative IPC: 1.63147 (Simulation time: 0 hr 14 min 44 sec) 
Heartbeat CPU 0 instructions: 270000001 cycles: 162794816 heartbeat IPC: 2.69432 cumulative IPC: 1.65575 (Simulation time: 0 hr 15 min 12 sec) 
Heartbeat CPU 0 instructions: 280000000 cycles: 165800524 heartbeat IPC: 3.327 cumulative IPC: 1.6861 (Simulation time: 0 hr 15 min 40 sec) 
Heartbeat CPU 0 instructions: 290000004 cycles: 172378705 heartbeat IPC: 1.52018 cumulative IPC: 1.67976 (Simulation time: 0 hr 16 min 11 sec) 
Heartbeat CPU 0 instructions: 300000003 cycles: 175400751 heartbeat IPC: 3.30902 cumulative IPC: 1.70788 (Simulation time: 0 hr 16 min 39 sec) 
Heartbeat CPU 0 instructions: 310000001 cycles: 179367529 heartbeat IPC: 2.52094 cumulative IPC: 1.7259 (Simulation time: 0 hr 17 min 9 sec) 
Heartbeat CPU 0 instructions: 320000002 cycles: 185591638 heartbeat IPC: 1.60666 cumulative IPC: 1.72189 (Simulation time: 0 hr 17 min 44 sec) 
Heartbeat CPU 0 instructions: 330000002 cycles: 189221101 heartbeat IPC: 2.75523 cumulative IPC: 1.74175 (Simulation time: 0 hr 18 min 22 sec) 
Heartbeat CPU 0 instructions: 340000002 cycles: 192855242 heartbeat IPC: 2.75168 cumulative IPC: 1.76081 (Simulation time: 0 hr 18 min 57 sec) 
Heartbeat CPU 0 instructions: 350000001 cycles: 203490849 heartbeat IPC: 0.940238 cumulative IPC: 1.71785 (Simulation time: 0 hr 19 min 41 sec) 
Heartbeat CPU 0 instructions: 360000002 cycles: 214460268 heartbeat IPC: 0.911625 cumulative IPC: 1.67655 (Simulation time: 0 hr 20 min 24 sec) 
Heartbeat CPU 0 instructions: 370000001 cycles: 225192906 heartbeat IPC: 0.931737 cumulative IPC: 1.641 (Simulation time: 0 hr 21 min 8 sec) 
Heartbeat CPU 0 instructions: 380000002 cycles: 236121909 heartbeat IPC: 0.914997 cumulative IPC: 1.60735 (Simulation time: 0 hr 21 min 52 sec) 
Heartbeat CPU 0 instructions: 390000003 cycles: 246986667 heartbeat IPC: 0.920407 cumulative IPC: 1.57709 (Simulation time: 0 hr 22 min 36 sec) 
Heartbeat CPU 0 instructions: 400000000 cycles: 257919197 heartbeat IPC: 0.914701 cumulative IPC: 1.54898 (Simulation time: 0 hr 23 min 19 sec) 
Heartbeat CPU 0 instructions: 410000002 cycles: 268514152 heartbeat IPC: 0.943846 cumulative IPC: 1.52507 (Simulation time: 0 hr 24 min 1 sec) 
Heartbeat CPU 0 instructions: 420000004 cycles: 273585605 heartbeat IPC: 1.97182 cumulative IPC: 1.53336 (Simulation time: 0 hr 24 min 29 sec) 
Heartbeat CPU 0 instructions: 430000001 cycles: 283714526 heartbeat IPC: 0.987272 cumulative IPC: 1.51385 (Simulation time: 0 hr 25 min 6 sec) 
Heartbeat CPU 0 instructions: 440000000 cycles: 294118663 heartbeat IPC: 0.961156 cumulative IPC: 1.49427 (Simulation time: 0 hr 25 min 44 sec) 
Heartbeat CPU 0 instructions: 450000001 cycles: 304385720 heartbeat IPC: 0.973989 cumulative IPC: 1.4767 (Simulation time: 0 hr 26 min 23 sec) 
Heartbeat CPU 0 instructions: 460000001 cycles: 315640986 heartbeat IPC: 0.888473 cumulative IPC: 1.45571 (Simulation time: 0 hr 27 min 2 sec) 
Heartbeat CPU 0 instructions: 470000001 cycles: 331069223 heartbeat IPC: 0.648162 cumulative IPC: 1.41804 (Simulation time: 0 hr 27 min 40 sec) 
Heartbeat CPU 0 instructions: 480000001 cycles: 347276251 heartbeat IPC: 0.617016 cumulative IPC: 1.38062 (Simulation time: 0 hr 28 min 18 sec) 
Heartbeat CPU 0 instructions: 490000000 cycles: 362734917 heartbeat IPC: 0.646886 cumulative IPC: 1.34932 (Simulation time: 0 hr 28 min 55 sec) 
Heartbeat CPU 0 instructions: 500000000 cycles: 377968511 heartbeat IPC: 0.656444 cumulative IPC: 1.32137 (Simulation time: 0 hr 29 min 31 sec) 
Heartbeat CPU 0 instructions: 510000002 cycles: 393261672 heartbeat IPC: 0.653887 cumulative IPC: 1.29539 (Simulation time: 0 hr 30 min 8 sec) 
Heartbeat CPU 0 instructions: 520000000 cycles: 408502692 heartbeat IPC: 0.656124 cumulative IPC: 1.27152 (Simulation time: 0 hr 30 min 45 sec) 
Heartbeat CPU 0 instructions: 530000000 cycles: 423720891 heartbeat IPC: 0.657108 cumulative IPC: 1.24944 (Simulation time: 0 hr 31 min 22 sec) 
Heartbeat CPU 0 instructions: 540000003 cycles: 438728781 heartbeat IPC: 0.666316 cumulative IPC: 1.22948 (Simulation time: 0 hr 31 min 59 sec) 
Heartbeat CPU 0 instructions: 550000001 cycles: 454126772 heartbeat IPC: 0.649435 cumulative IPC: 1.20979 (Simulation time: 0 hr 32 min 36 sec) 
Heartbeat CPU 0 instructions: 560000000 cycles: 469419638 heartbeat IPC: 0.6539 cumulative IPC: 1.19167 (Simulation time: 0 hr 33 min 14 sec) 
Heartbeat CPU 0 instructions: 570000002 cycles: 484401729 heartbeat IPC: 0.667464 cumulative IPC: 1.17545 (Simulation time: 0 hr 33 min 52 sec) 
Heartbeat CPU 0 instructions: 580000001 cycles: 499542437 heartbeat IPC: 0.660471 cumulative IPC: 1.15983 (Simulation time: 0 hr 34 min 31 sec) 
Heartbeat CPU 0 instructions: 590000000 cycles: 514564562 heartbeat IPC: 0.665685 cumulative IPC: 1.14539 (Simulation time: 0 hr 35 min 8 sec) 
Heartbeat CPU 0 instructions: 600000000 cycles: 529319892 heartbeat IPC: 0.677721 cumulative IPC: 1.13235 (Simulation time: 0 hr 35 min 46 sec) 
Heartbeat CPU 0 instructions: 610000002 cycles: 544399140 heartbeat IPC: 0.663163 cumulative IPC: 1.11934 (Simulation time: 0 hr 36 min 23 sec) 
Heartbeat CPU 0 instructions: 620000003 cycles: 559606355 heartbeat IPC: 0.657583 cumulative IPC: 1.10679 (Simulation time: 0 hr 37 min 2 sec) 
Heartbeat CPU 0 instructions: 630000000 cycles: 574716380 heartbeat IPC: 0.661812 cumulative IPC: 1.09508 (Simulation time: 0 hr 37 min 44 sec) 
Heartbeat CPU 0 instructions: 640000000 cycles: 589704562 heartbeat IPC: 0.667192 cumulative IPC: 1.0842 (Simulation time: 0 hr 38 min 26 sec) 
Heartbeat CPU 0 instructions: 650000000 cycles: 604926141 heartbeat IPC: 0.656962 cumulative IPC: 1.07344 (Simulation time: 0 hr 39 min 7 sec) 
Heartbeat CPU 0 instructions: 660000002 cycles: 620063742 heartbeat IPC: 0.660607 cumulative IPC: 1.06336 (Simulation time: 0 hr 39 min 49 sec) 
Heartbeat CPU 0 instructions: 670000001 cycles: 635151646 heartbeat IPC: 0.662782 cumulative IPC: 1.05384 (Simulation time: 0 hr 40 min 30 sec) 
Heartbeat CPU 0 instructions: 680000002 cycles: 650189989 heartbeat IPC: 0.664967 cumulative IPC: 1.04484 (Simulation time: 0 hr 41 min 12 sec) 
Heartbeat CPU 0 instructions: 690000000 cycles: 665339435 heartbeat IPC: 0.66009 cumulative IPC: 1.03608 (Simulation time: 0 hr 41 min 55 sec) 
Heartbeat CPU 0 instructions: 700000001 cycles: 680672136 heartbeat IPC: 0.652201 cumulative IPC: 1.02742 (Simulation time: 0 hr 42 min 38 sec) 
Heartbeat CPU 0 instructions: 710000002 cycles: 696213542 heartbeat IPC: 0.643443 cumulative IPC: 1.01885 (Simulation time: 0 hr 43 min 23 sec) 
Heartbeat CPU 0 instructions: 720000002 cycles: 711484547 heartbeat IPC: 0.654836 cumulative IPC: 1.01103 (Simulation time: 0 hr 44 min 5 sec) 
Heartbeat CPU 0 instructions: 730000000 cycles: 726566903 heartbeat IPC: 0.663026 cumulative IPC: 1.00381 (Simulation time: 0 hr 44 min 46 sec) 
Heartbeat CPU 0 instructions: 740000002 cycles: 741694572 heartbeat IPC: 0.66104 cumulative IPC: 0.996811 (Simulation time: 0 hr 45 min 29 sec) 
Heartbeat CPU 0 instructions: 750000000 cycles: 757005700 heartbeat IPC: 0.65312 cumulative IPC: 0.989856 (Simulation time: 0 hr 46 min 12 sec) 
Heartbeat CPU 0 instructions: 760000000 cycles: 772419926 heartbeat IPC: 0.648751 cumulative IPC: 0.983047 (Simulation time: 0 hr 46 min 55 sec) 
Heartbeat CPU 0 instructions: 770000000 cycles: 787645404 heartbeat IPC: 0.656794 cumulative IPC: 0.976737 (Simulation time: 0 hr 47 min 38 sec) 
Heartbeat CPU 0 instructions: 780000003 cycles: 834406504 heartbeat IPC: 0.213853 cumulative IPC: 0.933967 (Simulation time: 0 hr 49 min 15 sec) 
Heartbeat CPU 0 instructions: 790000004 cycles: 845440580 heartbeat IPC: 0.906283 cumulative IPC: 0.933606 (Simulation time: 0 hr 50 min 10 sec) 
Heartbeat CPU 0 instructions: 800000003 cycles: 867815473 heartbeat IPC: 0.446929 cumulative IPC: 0.921053 (Simulation time: 0 hr 51 min 37 sec) 
Heartbeat CPU 0 instructions: 810000000 cycles: 894109822 heartbeat IPC: 0.38031 cumulative IPC: 0.905145 (Simulation time: 0 hr 53 min 12 sec) 
Heartbeat CPU 0 instructions: 820000004 cycles: 899491069 heartbeat IPC: 1.85831 cumulative IPC: 0.910849 (Simulation time: 0 hr 53 min 51 sec) 
Heartbeat CPU 0 instructions: 830000003 cycles: 902465167 heartbeat IPC: 3.36236 cumulative IPC: 0.918931 (Simulation time: 0 hr 54 min 30 sec) 
Heartbeat CPU 0 instructions: 840000003 cycles: 908159304 heartbeat IPC: 1.75619 cumulative IPC: 0.924183 (Simulation time: 0 hr 55 min 9 sec) 
Heartbeat CPU 0 instructions: 850000001 cycles: 911968502 heartbeat IPC: 2.62522 cumulative IPC: 0.931291 (Simulation time: 0 hr 55 min 48 sec) 
Heartbeat CPU 0 instructions: 860000000 cycles: 914950502 heartbeat IPC: 3.35345 cumulative IPC: 0.939188 (Simulation time: 0 hr 56 min 27 sec) 
Heartbeat CPU 0 instructions: 870000000 cycles: 921495614 heartbeat IPC: 1.52786 cumulative IPC: 0.94337 (Simulation time: 0 hr 57 min 8 sec) 
Heartbeat CPU 0 instructions: 880000004 cycles: 924452398 heartbeat IPC: 3.38205 cumulative IPC: 0.951173 (Simulation time: 0 hr 57 min 46 sec) 
Heartbeat CPU 0 instructions: 890000001 cycles: 928098892 heartbeat IPC: 2.74236 cumulative IPC: 0.958213 (Simulation time: 0 hr 58 min 25 sec) 
Heartbeat CPU 0 instructions: 900000002 cycles: 933966943 heartbeat IPC: 1.70414 cumulative IPC: 0.962901 (Simulation time: 0 hr 59 min 5 sec) 
Heartbeat CPU 0 instructions: 910000000 cycles: 936969643 heartbeat IPC: 3.33034 cumulative IPC: 0.970491 (Simulation time: 0 hr 59 min 45 sec) 
Heartbeat CPU 0 instructions: 920000000 cycles: 942181378 heartbeat IPC: 1.91875 cumulative IPC: 0.975738 (Simulation time: 1 hr 0 min 24 sec) 
Heartbeat CPU 0 instructions: 930000004 cycles: 946472066 heartbeat IPC: 2.33063 cumulative IPC: 0.981883 (Simulation time: 1 hr 1 min 6 sec) 
Heartbeat CPU 0 instructions: 940000002 cycles: 949464225 heartbeat IPC: 3.34207 cumulative IPC: 0.989323 (Simulation time: 1 hr 1 min 45 sec) 
Heartbeat CPU 0 instructions: 950000002 cycles: 955997334 heartbeat IPC: 1.53066 cumulative IPC: 0.993024 (Simulation time: 1 hr 2 min 27 sec) 
Heartbeat CPU 0 instructions: 960000000 cycles: 958955635 heartbeat IPC: 3.38032 cumulative IPC: 1.00039 (Simulation time: 1 hr 3 min 7 sec) 
Heartbeat CPU 0 instructions: 970000004 cycles: 962134294 heartbeat IPC: 3.14598 cumulative IPC: 1.00748 (Simulation time: 1 hr 3 min 47 sec) 
Heartbeat CPU 0 instructions: 980000000 cycles: 968470296 heartbeat IPC: 1.57828 cumulative IPC: 1.01122 (Simulation time: 1 hr 4 min 30 sec) 
Heartbeat CPU 0 instructions: 990000003 cycles: 971439295 heartbeat IPC: 3.36814 cumulative IPC: 1.01842 (Simulation time: 1 hr 5 min 12 sec) 
Heartbeat CPU 0 instructions: 1000000003 cycles: 976176064 heartbeat IPC: 2.11114 cumulative IPC: 1.02373 (Simulation time: 1 hr 5 min 54 sec) 
Finished CPU 0 instructions: 1000000004 cycles: 976661914 cumulative IPC: 1.0239 (Simulation time: 1 hr 5 min 59 sec) 

ChampSim completed all CPUs

Region of Interest Statistics

CPU 0 cumulative IPC: 1.0239 instructions: 1000000004 cycles: 976661914
cpu0_DTLB TOTAL     ACCESS:  222833791  HIT:  220903742  MISS:    1930049
cpu0_DTLB LOAD      ACCESS:  184683177  HIT:  182969130  MISS:    1714047
cpu0_DTLB RFO       ACCESS:   38150614  HIT:   37934612  MISS:     216002
cpu0_DTLB PREFETCH  ACCESS:          0  HIT:          0  MISS:          0
cpu0_DTLB WRITEBACK ACCESS:          0  HIT:          0  MISS:          0
cpu0_DTLB TRANSLATION ACCESS:          0  HIT:          0  MISS:          0
cpu0_DTLB PREFETCH  REQUESTED:          0  ISSUED:          0  USEFUL:          0  USELESS:          0
cpu0_DTLB AVERAGE MISS LATENCY: 9.24503 cycles
cpu0_ITLB TOTAL     ACCESS:   93578685  HIT:   93576244  MISS:       2441
cpu0_ITLB LOAD      ACCESS:   93578685  HIT:   93576244  MISS:       2441
cpu0_ITLB RFO       ACCESS:          0  HIT:          0  MISS:          0
cpu0_ITLB PREFETCH  ACCESS:          0  HIT:          0  MISS:          0
cpu0_ITLB WRITEBACK ACCESS:          0  HIT:          0  MISS:          0
cpu0_ITLB TRANSLATION ACCESS:          0  HIT:          0  MISS:          0
cpu0_ITLB PREFETCH  REQUESTED:          0  ISSUED:          0  USEFUL:          0  USELESS:          0
cpu0_ITLB AVERAGE MISS LATENCY: 22.0684 cycles
cpu0_L1I TOTAL     ACCESS:   25600111  HIT:   25594688  MISS:       5423
cpu0_L1I LOAD      ACCESS:   25600111  HIT:   25594688  MISS:       5423
cpu0_L1I RFO       ACCESS:          0  HIT:          0  MISS:          0
cpu0_L1I PREFETCH  ACCESS:          0  HIT:          0  MISS:          0
cpu0_L1I WRITEBACK ACCESS:          0  HIT:          0  MISS:          0
cpu0_L1I TRANSLATION ACCESS:          0  HIT:          0  MISS:          0
cpu0_L1I PREFETCH  REQUESTED:          0  ISSUED:          0  USEFUL:          0  USELESS:          0
cpu0_L1I AVERAGE MISS LATENCY: 204.091 cycles
cpu0_STLB TOTAL     ACCESS:    1932490  HIT:    1927217  MISS:       5273
cpu0_STLB LOAD      ACCESS:    1716488  HIT:    1713430  MISS:       3058
cpu0_STLB RFO       ACCESS:     216002  HIT:     213787  MISS:       2215
cpu0_STLB PREFETCH  ACCESS:          0  HIT:          0  MISS:          0
cpu0_STLB WRITEBACK ACCESS:          0  HIT:          0  MISS:          0
cpu0_STLB TRANSLATION ACCESS:          0  HIT:          0  MISS:          0
cpu0_STLB PREFETCH  REQUESTED:          0  ISSUED:          0  USEFUL:          0  USELESS:          0
cpu0_STLB AVERAGE MISS LATENCY: 94.6573 cycles
cpu0_L1D TOTAL     ACCESS:  472243939  HIT:  446344912  MISS:   25899027
cpu0_L1D LOAD      ACCESS:  207008569  HIT:  195268365  MISS:   11740204
cpu0_L1D RFO       ACCESS:   60392546  HIT:   59973621  MISS:     418925
cpu0_L1D PREFETCH  ACCESS:  204837556  HIT:  191098189  MISS:   13739367
cpu0_L1D WRITEBACK ACCESS:          0  HIT:          0  MISS:          0
cpu0_L1D TRANSLATION ACCESS:       5268  HIT:       4737  MISS:        531
cpu0_L1D PREFETCH  REQUESTED:  207150033  ISSUED:  205866197  USEFUL:    8546654  USELESS:    5330186
cpu0_L1D AVERAGE MISS LATENCY: 21.4802 cycles
cpu0_L2C TOTAL     ACCESS:   27722867  HIT:   26578990  MISS:    1143877
cpu0_L2C LOAD      ACCESS:   11655957  HIT:   11365733  MISS:     290224
cpu0_L2C RFO       ACCESS:     367347  HIT:     156494  MISS:     210853
cpu0_L2C PREFETCH  ACCESS:   14890694  HIT:   14248891  MISS:     641803
cpu0_L2C WRITEBACK ACCESS:     808338  HIT:     807410  MISS:        928
cpu0_L2C TRANSLATION ACCESS:        531  HIT:        462  MISS:         69
cpu0_L2C PREFETCH  REQUESTED:    1042353  ISSUED:    1029168  USEFUL:      27886  USELESS:      26086
cpu0_L2C AVERAGE MISS LATENCY: 245.644 cycles
LLC TOTAL     ACCESS:    1703963  HIT:    1004462  MISS:     699501
LLC LOAD      ACCESS:     290222  HIT:      84104  MISS:     206118
LLC RFO       ACCESS:     210852  HIT:     118893  MISS:      91959
LLC PREFETCH  ACCESS:     641966  HIT:     245591  MISS:     396375
LLC WRITEBACK ACCESS:     560854  HIT:     555819  MISS:       5035
LLC TRANSLATION ACCESS:         69  HIT:         55  MISS:         14
LLC PREFETCH  REQUESTED:          0  ISSUED:          0  USEFUL:          0  USELESS:          0
LLC AVERAGE MISS LATENCY: 357.888 cycles

DRAM Statistics
 CHANNEL 0
 RQ ROW_BUFFER_HIT:     105958  ROW_BUFFER_MISS:     588387
 DBUS AVG_CONGESTED_CYCLE:    3.88365
 WQ ROW_BUFFER_HIT:      38861  ROW_BUFFER_MISS:     292741  FULL:          0


CPU 0 Branch Prediction Accuracy: 88.5577% MPKI: 20.1191 Average ROB Occupancy at Mispredict: 18.8617
Branch type MPKI
BRANCH_DIRECT_JUMP: 0.000451
BRANCH_INDIRECT: 0.007247
BRANCH_CONDITIONAL: 20.1095
BRANCH_DIRECT_CALL: 0.0009
BRANCH_INDIRECT_CALL: 0.000191
BRANCH_RETURN: 0.00082

