
*** ChampSim Multicore Out-of-Order Simulator ***

Warmup Instructions: 1000000
Simulation Instructions: 1000000000
Number of CPUs: 1
Off-chip DRAM Size: 4 GiB Channels: 1 Width: 64-bit Data Rate: 3200 MT/s

VirtualMemory physical capacity: 8588881920 num_ppages: 2096895
VirtualMemory page size: 4096 log2_page_size: 12

CPU 0 runs tracer/pin/traces/spec2k17/627.cam4_s-573B.champsimtrace.xz
Basic BTB sets: 1024 ways: 8 indirect buffer size: 4096 RAS size: 64
cpu0_L1D next line prefetcher
cpu0_L2C IP-based stride prefetcher
WARNING: The extended signature CACHE::prefetch_line(ip, base_addr, pf_addr, fill_this_level, prefetch_metadata) is deprecated.
WARNING: Use CACHE::prefetch_line(pf_addr, fill_this_level, prefetch_metadata) instead.

Warmup complete CPU 0 instructions: 1000002 cycles: 278158 (Simulation time: 0 hr 0 min 2 sec) 

Heartbeat CPU 0 instructions: 10000002 cycles: 13735901 heartbeat IPC: 0.728019 cumulative IPC: 0.66876 (Simulation time: 0 hr 1 min 12 sec) 
Heartbeat CPU 0 instructions: 20000000 cycles: 19156282 heartbeat IPC: 1.84489 cumulative IPC: 1.00646 (Simulation time: 0 hr 1 min 56 sec) 
Heartbeat CPU 0 instructions: 30000003 cycles: 24395459 heartbeat IPC: 1.9087 cumulative IPC: 1.20246 (Simulation time: 0 hr 2 min 40 sec) 
Heartbeat CPU 0 instructions: 40000002 cycles: 29474525 heartbeat IPC: 1.96887 cumulative IPC: 1.33578 (Simulation time: 0 hr 3 min 23 sec) 
Heartbeat CPU 0 instructions: 50000001 cycles: 34871469 heartbeat IPC: 1.8529 cumulative IPC: 1.41646 (Simulation time: 0 hr 4 min 3 sec) 
Heartbeat CPU 0 instructions: 60000002 cycles: 40222672 heartbeat IPC: 1.86874 cumulative IPC: 1.47705 (Simulation time: 0 hr 4 min 43 sec) 
Heartbeat CPU 0 instructions: 70000003 cycles: 45568513 heartbeat IPC: 1.87061 cumulative IPC: 1.5235 (Simulation time: 0 hr 5 min 23 sec) 
Heartbeat CPU 0 instructions: 80000004 cycles: 52477258 heartbeat IPC: 1.44744 cumulative IPC: 1.51344 (Simulation time: 0 hr 6 min 9 sec) 
Heartbeat CPU 0 instructions: 90000004 cycles: 60361224 heartbeat IPC: 1.2684 cumulative IPC: 1.48128 (Simulation time: 0 hr 6 min 53 sec) 
Heartbeat CPU 0 instructions: 100000000 cycles: 73776461 heartbeat IPC: 0.745421 cumulative IPC: 1.34697 (Simulation time: 0 hr 8 min 8 sec) 
Heartbeat CPU 0 instructions: 110000002 cycles: 123483351 heartbeat IPC: 0.201179 cumulative IPC: 0.884703 (Simulation time: 0 hr 13 min 20 sec) 
Heartbeat CPU 0 instructions: 120000004 cycles: 129609320 heartbeat IPC: 1.6324 cumulative IPC: 0.920119 (Simulation time: 0 hr 14 min 14 sec) 
Heartbeat CPU 0 instructions: 130000004 cycles: 134841621 heartbeat IPC: 1.91121 cumulative IPC: 0.958655 (Simulation time: 0 hr 15 min 6 sec) 
Heartbeat CPU 0 instructions: 140000001 cycles: 140025404 heartbeat IPC: 1.92909 cumulative IPC: 0.994653 (Simulation time: 0 hr 15 min 57 sec) 
Heartbeat CPU 0 instructions: 150000004 cycles: 145301752 heartbeat IPC: 1.89525 cumulative IPC: 1.02742 (Simulation time: 0 hr 16 min 43 sec) 
Heartbeat CPU 0 instructions: 160000004 cycles: 150701333 heartbeat IPC: 1.852 cumulative IPC: 1.05702 (Simulation time: 0 hr 17 min 28 sec) 
Heartbeat CPU 0 instructions: 170000000 cycles: 156140669 heartbeat IPC: 1.83846 cumulative IPC: 1.08429 (Simulation time: 0 hr 18 min 13 sec) 
Heartbeat CPU 0 instructions: 180000003 cycles: 162782108 heartbeat IPC: 1.5057 cumulative IPC: 1.10151 (Simulation time: 0 hr 19 min 2 sec) 
Heartbeat CPU 0 instructions: 190000000 cycles: 170416774 heartbeat IPC: 1.30981 cumulative IPC: 1.11086 (Simulation time: 0 hr 19 min 54 sec) 
Heartbeat CPU 0 instructions: 200000000 cycles: 182127454 heartbeat IPC: 0.853921 cumulative IPC: 1.09431 (Simulation time: 0 hr 21 min 4 sec) 
Heartbeat CPU 0 instructions: 210000004 cycles: 233287393 heartbeat IPC: 0.195466 cumulative IPC: 0.89696 (Simulation time: 0 hr 26 min 25 sec) 
Heartbeat CPU 0 instructions: 220000003 cycles: 239894973 heartbeat IPC: 1.51341 cumulative IPC: 0.913959 (Simulation time: 0 hr 27 min 19 sec) 
Heartbeat CPU 0 instructions: 230000002 cycles: 245147064 heartbeat IPC: 1.904 cumulative IPC: 0.935194 (Simulation time: 0 hr 28 min 12 sec) 
Heartbeat CPU 0 instructions: 240000001 cycles: 250278408 heartbeat IPC: 1.94881 cumulative IPC: 0.955999 (Simulation time: 0 hr 29 min 3 sec) 
Heartbeat CPU 0 instructions: 250000001 cycles: 255546330 heartbeat IPC: 1.89828 cumulative IPC: 0.975445 (Simulation time: 0 hr 29 min 51 sec) 
Heartbeat CPU 0 instructions: 260000000 cycles: 260878633 heartbeat IPC: 1.87536 cumulative IPC: 0.993859 (Simulation time: 0 hr 30 min 36 sec) 
Heartbeat CPU 0 instructions: 270000002 cycles: 266236500 heartbeat IPC: 1.86641 cumulative IPC: 1.01144 (Simulation time: 0 hr 31 min 21 sec) 
Heartbeat CPU 0 instructions: 280000002 cycles: 271840932 heartbeat IPC: 1.7843 cumulative IPC: 1.02739 (Simulation time: 0 hr 32 min 9 sec) 
Heartbeat CPU 0 instructions: 290000002 cycles: 279499456 heartbeat IPC: 1.30573 cumulative IPC: 1.03502 (Simulation time: 0 hr 33 min 1 sec) 
Heartbeat CPU 0 instructions: 300000002 cycles: 289171926 heartbeat IPC: 1.03386 cumulative IPC: 1.03498 (Simulation time: 0 hr 33 min 56 sec) 
Heartbeat CPU 0 instructions: 310000001 cycles: 342226558 heartbeat IPC: 0.188485 cumulative IPC: 0.903645 (Simulation time: 0 hr 39 min 40 sec) 
Heartbeat CPU 0 instructions: 320000001 cycles: 350176447 heartbeat IPC: 1.25788 cumulative IPC: 0.911694 (Simulation time: 0 hr 40 min 35 sec) 
Heartbeat CPU 0 instructions: 330000003 cycles: 355507618 heartbeat IPC: 1.87576 cumulative IPC: 0.926162 (Simulation time: 0 hr 41 min 25 sec) 
Heartbeat CPU 0 instructions: 340000000 cycles: 360601479 heartbeat IPC: 1.96315 cumulative IPC: 0.940822 (Simulation time: 0 hr 42 min 14 sec) 
Heartbeat CPU 0 instructions: 350000000 cycles: 365764114 heartbeat IPC: 1.937 cumulative IPC: 0.954893 (Simulation time: 0 hr 43 min 2 sec) 
Heartbeat CPU 0 instructions: 360000004 cycles: 371061998 heartbeat IPC: 1.88755 cumulative IPC: 0.968219 (Simulation time: 0 hr 43 min 49 sec) 
Heartbeat CPU 0 instructions: 370000001 cycles: 376373850 heartbeat IPC: 1.88258 cumulative IPC: 0.981133 (Simulation time: 0 hr 44 min 33 sec) 
Heartbeat CPU 0 instructions: 380000003 cycles: 381676755 heartbeat IPC: 1.88576 cumulative IPC: 0.993711 (Simulation time: 0 hr 45 min 19 sec) 
Heartbeat CPU 0 instructions: 390000001 cycles: 388575554 heartbeat IPC: 1.44953 cumulative IPC: 1.00181 (Simulation time: 0 hr 46 min 10 sec) 
Heartbeat CPU 0 instructions: 400000001 cycles: 396495485 heartbeat IPC: 1.26264 cumulative IPC: 1.00702 (Simulation time: 0 hr 47 min 0 sec) 
Heartbeat CPU 0 instructions: 410000001 cycles: 414901474 heartbeat IPC: 0.543301 cumulative IPC: 0.986437 (Simulation time: 0 hr 48 min 58 sec) 
Heartbeat CPU 0 instructions: 420000000 cycles: 459478024 heartbeat IPC: 0.224333 cumulative IPC: 0.912457 (Simulation time: 0 hr 53 min 39 sec) 
Heartbeat CPU 0 instructions: 430000001 cycles: 465402368 heartbeat IPC: 1.68795 cumulative IPC: 0.922334 (Simulation time: 0 hr 54 min 34 sec) 
Heartbeat CPU 0 instructions: 440000001 cycles: 470693874 heartbeat IPC: 1.88982 cumulative IPC: 0.933217 (Simulation time: 0 hr 55 min 25 sec) 
Heartbeat CPU 0 instructions: 450000003 cycles: 475969690 heartbeat IPC: 1.89544 cumulative IPC: 0.943889 (Simulation time: 0 hr 56 min 17 sec) 
Heartbeat CPU 0 instructions: 460000000 cycles: 481229874 heartbeat IPC: 1.90107 cumulative IPC: 0.954358 (Simulation time: 0 hr 57 min 3 sec) 
Heartbeat CPU 0 instructions: 470000000 cycles: 486560013 heartbeat IPC: 1.87612 cumulative IPC: 0.964461 (Simulation time: 0 hr 57 min 49 sec) 
Heartbeat CPU 0 instructions: 480000002 cycles: 491880692 heartbeat IPC: 1.87946 cumulative IPC: 0.974364 (Simulation time: 0 hr 58 min 33 sec) 
Heartbeat CPU 0 instructions: 490000000 cycles: 498612319 heartbeat IPC: 1.48552 cumulative IPC: 0.981269 (Simulation time: 0 hr 59 min 22 sec) 
Heartbeat CPU 0 instructions: 500000001 cycles: 506469597 heartbeat IPC: 1.27271 cumulative IPC: 0.985793 (Simulation time: 1 hr 0 min 12 sec) 
Heartbeat CPU 0 instructions: 510000001 cycles: 518984748 heartbeat IPC: 0.799031 cumulative IPC: 0.981287 (Simulation time: 1 hr 1 min 29 sec) 
Heartbeat CPU 0 instructions: 520000004 cycles: 569468455 heartbeat IPC: 0.198084 cumulative IPC: 0.911822 (Simulation time: 1 hr 6 min 56 sec) 
Heartbeat CPU 0 instructions: 530000001 cycles: 575435128 heartbeat IPC: 1.67598 cumulative IPC: 0.919749 (Simulation time: 1 hr 7 min 51 sec) 
Heartbeat CPU 0 instructions: 540000002 cycles: 580699488 heartbeat IPC: 1.89957 cumulative IPC: 0.928636 (Simulation time: 1 hr 8 min 44 sec) 
Heartbeat CPU 0 instructions: 550000002 cycles: 585902814 heartbeat IPC: 1.92185 cumulative IPC: 0.937461 (Simulation time: 1 hr 9 min 35 sec) 
Heartbeat CPU 0 instructions: 560000000 cycles: 591156517 heartbeat IPC: 1.90342 cumulative IPC: 0.946049 (Simulation time: 1 hr 10 min 23 sec) 
Heartbeat CPU 0 instructions: 570000000 cycles: 596362104 heartbeat IPC: 1.92101 cumulative IPC: 0.954564 (Simulation time: 1 hr 11 min 9 sec) 
Heartbeat CPU 0 instructions: 580000000 cycles: 601669971 heartbeat IPC: 1.884 cumulative IPC: 0.962767 (Simulation time: 1 hr 11 min 55 sec) 
Heartbeat CPU 0 instructions: 590000000 cycles: 608318547 heartbeat IPC: 1.50408 cumulative IPC: 0.968686 (Simulation time: 1 hr 12 min 44 sec) 
Heartbeat CPU 0 instructions: 600000001 cycles: 616334251 heartbeat IPC: 1.24755 cumulative IPC: 0.972314 (Simulation time: 1 hr 13 min 35 sec) 
Heartbeat CPU 0 instructions: 610000004 cycles: 628403527 heartbeat IPC: 0.82855 cumulative IPC: 0.969552 (Simulation time: 1 hr 14 min 52 sec) 
Heartbeat CPU 0 instructions: 620000002 cycles: 679091307 heartbeat IPC: 0.197286 cumulative IPC: 0.911886 (Simulation time: 1 hr 20 min 11 sec) 
Heartbeat CPU 0 instructions: 630000003 cycles: 685171605 heartbeat IPC: 1.64466 cumulative IPC: 0.918391 (Simulation time: 1 hr 21 min 4 sec) 
Heartbeat CPU 0 instructions: 640000001 cycles: 690452241 heartbeat IPC: 1.89371 cumulative IPC: 0.925853 (Simulation time: 1 hr 21 min 52 sec) 
Heartbeat CPU 0 instructions: 650000000 cycles: 695638749 heartbeat IPC: 1.92808 cumulative IPC: 0.933329 (Simulation time: 1 hr 22 min 38 sec) 
Heartbeat CPU 0 instructions: 660000002 cycles: 700845456 heartbeat IPC: 1.9206 cumulative IPC: 0.940666 (Simulation time: 1 hr 23 min 20 sec) 
Heartbeat CPU 0 instructions: 670000002 cycles: 706162703 heartbeat IPC: 1.88067 cumulative IPC: 0.947747 (Simulation time: 1 hr 24 min 2 sec) 
Heartbeat CPU 0 instructions: 680000003 cycles: 712299861 heartbeat IPC: 1.62942 cumulative IPC: 0.953623 (Simulation time: 1 hr 24 min 48 sec) 
Heartbeat CPU 0 instructions: 690000002 cycles: 720047425 heartbeat IPC: 1.29073 cumulative IPC: 0.957251 (Simulation time: 1 hr 25 min 35 sec) 
Heartbeat CPU 0 instructions: 700000004 cycles: 732054361 heartbeat IPC: 0.832852 cumulative IPC: 0.95521 (Simulation time: 1 hr 26 min 39 sec) 
Heartbeat CPU 0 instructions: 710000001 cycles: 783136392 heartbeat IPC: 0.195763 cumulative IPC: 0.905656 (Simulation time: 1 hr 31 min 29 sec) 
Heartbeat CPU 0 instructions: 720000004 cycles: 789555004 heartbeat IPC: 1.55797 cumulative IPC: 0.91096 (Simulation time: 1 hr 32 min 18 sec) 
Heartbeat CPU 0 instructions: 730000001 cycles: 794960257 heartbeat IPC: 1.85005 cumulative IPC: 0.917348 (Simulation time: 1 hr 33 min 5 sec) 
Heartbeat CPU 0 instructions: 740000002 cycles: 800126079 heartbeat IPC: 1.9358 cumulative IPC: 0.923926 (Simulation time: 1 hr 33 min 47 sec) 
Heartbeat CPU 0 instructions: 750000004 cycles: 805299364 heartbeat IPC: 1.93301 cumulative IPC: 0.93041 (Simulation time: 1 hr 34 min 27 sec) 
Heartbeat CPU 0 instructions: 760000000 cycles: 810511401 heartbeat IPC: 1.91863 cumulative IPC: 0.936767 (Simulation time: 1 hr 35 min 5 sec) 
Heartbeat CPU 0 instructions: 770000004 cycles: 816699470 heartbeat IPC: 1.61601 cumulative IPC: 0.941916 (Simulation time: 1 hr 35 min 46 sec) 
Heartbeat CPU 0 instructions: 780000003 cycles: 824271255 heartbeat IPC: 1.32069 cumulative IPC: 0.945396 (Simulation time: 1 hr 36 min 30 sec) 
Heartbeat CPU 0 instructions: 790000004 cycles: 834663038 heartbeat IPC: 0.962299 cumulative IPC: 0.945607 (Simulation time: 1 hr 37 min 23 sec) 
Heartbeat CPU 0 instructions: 800000000 cycles: 887533878 heartbeat IPC: 0.18914 cumulative IPC: 0.90053 (Simulation time: 1 hr 41 min 39 sec) 
Heartbeat CPU 0 instructions: 810000000 cycles: 894018250 heartbeat IPC: 1.54217 cumulative IPC: 0.905185 (Simulation time: 1 hr 42 min 25 sec) 
Heartbeat CPU 0 instructions: 820000002 cycles: 899327939 heartbeat IPC: 1.88335 cumulative IPC: 0.910962 (Simulation time: 1 hr 43 min 6 sec) 
Heartbeat CPU 0 instructions: 830000002 cycles: 904548603 heartbeat IPC: 1.91547 cumulative IPC: 0.916761 (Simulation time: 1 hr 43 min 47 sec) 
Heartbeat CPU 0 instructions: 840000003 cycles: 909697768 heartbeat IPC: 1.94206 cumulative IPC: 0.922566 (Simulation time: 1 hr 44 min 24 sec) 
Heartbeat CPU 0 instructions: 850000002 cycles: 914890779 heartbeat IPC: 1.92566 cumulative IPC: 0.928262 (Simulation time: 1 hr 45 min 0 sec) 
Heartbeat CPU 0 instructions: 860000003 cycles: 920551028 heartbeat IPC: 1.76671 cumulative IPC: 0.933419 (Simulation time: 1 hr 45 min 38 sec) 
Heartbeat CPU 0 instructions: 870000001 cycles: 928382915 heartbeat IPC: 1.27683 cumulative IPC: 0.936317 (Simulation time: 1 hr 46 min 20 sec) 
Heartbeat CPU 0 instructions: 880000003 cycles: 938856366 heartbeat IPC: 0.954795 cumulative IPC: 0.936523 (Simulation time: 1 hr 47 min 6 sec) 
Heartbeat CPU 0 instructions: 890000000 cycles: 991642972 heartbeat IPC: 0.189442 cumulative IPC: 0.896744 (Simulation time: 1 hr 51 min 23 sec) 
Heartbeat CPU 0 instructions: 900000001 cycles: 998320509 heartbeat IPC: 1.49756 cumulative IPC: 0.900763 (Simulation time: 1 hr 52 min 4 sec) 
Heartbeat CPU 0 instructions: 910000000 cycles: 1003582762 heartbeat IPC: 1.90033 cumulative IPC: 0.906006 (Simulation time: 1 hr 52 min 43 sec) 
Heartbeat CPU 0 instructions: 920000002 cycles: 1008771829 heartbeat IPC: 1.92713 cumulative IPC: 0.91126 (Simulation time: 1 hr 53 min 24 sec) 
Heartbeat CPU 0 instructions: 930000000 cycles: 1014078125 heartbeat IPC: 1.88455 cumulative IPC: 0.916354 (Simulation time: 1 hr 54 min 3 sec) 
Heartbeat CPU 0 instructions: 940000000 cycles: 1019402001 heartbeat IPC: 1.87833 cumulative IPC: 0.92138 (Simulation time: 1 hr 54 min 38 sec) 
Heartbeat CPU 0 instructions: 950000001 cycles: 1024787910 heartbeat IPC: 1.8567 cumulative IPC: 0.926297 (Simulation time: 1 hr 55 min 13 sec) 
Heartbeat CPU 0 instructions: 960000001 cycles: 1031424983 heartbeat IPC: 1.50669 cumulative IPC: 0.930032 (Simulation time: 1 hr 55 min 55 sec) 
Heartbeat CPU 0 instructions: 970000000 cycles: 1039176209 heartbeat IPC: 1.29012 cumulative IPC: 0.932719 (Simulation time: 1 hr 56 min 39 sec) 
Heartbeat CPU 0 instructions: 980000003 cycles: 1050779596 heartbeat IPC: 0.861818 cumulative IPC: 0.931936 (Simulation time: 1 hr 57 min 37 sec) 
Heartbeat CPU 0 instructions: 990000002 cycles: 1102092586 heartbeat IPC: 0.194882 cumulative IPC: 0.89761 (Simulation time: 2 hr 2 min 21 sec) 
Heartbeat CPU 0 instructions: 1000000001 cycles: 1108245131 heartbeat IPC: 1.62534 cumulative IPC: 0.901651 (Simulation time: 2 hr 3 min 10 sec) 
Finished CPU 0 instructions: 1000000003 cycles: 1108535638 cumulative IPC: 0.902091 (Simulation time: 2 hr 3 min 15 sec) 

ChampSim completed all CPUs

Region of Interest Statistics

CPU 0 cumulative IPC: 0.902091 instructions: 1000000003 cycles: 1108535638
cpu0_DTLB TOTAL     ACCESS:  160684042  HIT:  160037864  MISS:     646178
cpu0_DTLB LOAD      ACCESS:  107605604  HIT:  107118104  MISS:     487500
cpu0_DTLB RFO       ACCESS:   53078438  HIT:   52919760  MISS:     158678
cpu0_DTLB PREFETCH  ACCESS:          0  HIT:          0  MISS:          0
cpu0_DTLB WRITEBACK ACCESS:          0  HIT:          0  MISS:          0
cpu0_DTLB TRANSLATION ACCESS:          0  HIT:          0  MISS:          0
cpu0_DTLB PREFETCH  REQUESTED:          0  ISSUED:          0  USEFUL:          0  USELESS:          0
cpu0_DTLB AVERAGE MISS LATENCY: 15.4113 cycles
cpu0_ITLB TOTAL     ACCESS:   65773546  HIT:   65761331  MISS:      12215
cpu0_ITLB LOAD      ACCESS:   65773546  HIT:   65761331  MISS:      12215
cpu0_ITLB RFO       ACCESS:          0  HIT:          0  MISS:          0
cpu0_ITLB PREFETCH  ACCESS:          0  HIT:          0  MISS:          0
cpu0_ITLB WRITEBACK ACCESS:          0  HIT:          0  MISS:          0
cpu0_ITLB TRANSLATION ACCESS:          0  HIT:          0  MISS:          0
cpu0_ITLB PREFETCH  REQUESTED:          0  ISSUED:          0  USEFUL:          0  USELESS:          0
cpu0_ITLB AVERAGE MISS LATENCY: 18.3273 cycles
cpu0_L1I TOTAL     ACCESS:   61423119  HIT:   61019129  MISS:     403990
cpu0_L1I LOAD      ACCESS:   61423119  HIT:   61019129  MISS:     403990
cpu0_L1I RFO       ACCESS:          0  HIT:          0  MISS:          0
cpu0_L1I PREFETCH  ACCESS:          0  HIT:          0  MISS:          0
cpu0_L1I WRITEBACK ACCESS:          0  HIT:          0  MISS:          0
cpu0_L1I TRANSLATION ACCESS:          0  HIT:          0  MISS:          0
cpu0_L1I PREFETCH  REQUESTED:          0  ISSUED:          0  USEFUL:          0  USELESS:          0
cpu0_L1I AVERAGE MISS LATENCY: 136.177 cycles
cpu0_STLB TOTAL     ACCESS:     658393  HIT:     559813  MISS:      98580
cpu0_STLB LOAD      ACCESS:     499715  HIT:     479091  MISS:      20624
cpu0_STLB RFO       ACCESS:     158678  HIT:      80722  MISS:      77956
cpu0_STLB PREFETCH  ACCESS:          0  HIT:          0  MISS:          0
cpu0_STLB WRITEBACK ACCESS:          0  HIT:          0  MISS:          0
cpu0_STLB TRANSLATION ACCESS:          0  HIT:          0  MISS:          0
cpu0_STLB PREFETCH  REQUESTED:          0  ISSUED:          0  USEFUL:          0  USELESS:          0
cpu0_STLB AVERAGE MISS LATENCY: 42.7013 cycles
cpu0_L1D TOTAL     ACCESS:  301669659  HIT:  289846365  MISS:   11823294
cpu0_L1D LOAD      ACCESS:  111037184  HIT:  108516886  MISS:    2520298
cpu0_L1D RFO       ACCESS:   82524874  HIT:   76044115  MISS:    6480759
cpu0_L1D PREFETCH  ACCESS:  108011651  HIT:  105194189  MISS:    2817462
cpu0_L1D WRITEBACK ACCESS:          0  HIT:          0  MISS:          0
cpu0_L1D TRANSLATION ACCESS:      95950  HIT:      91175  MISS:       4775
cpu0_L1D PREFETCH  REQUESTED:  111725297  ISSUED:  110360965  USEFUL:    2567020  USELESS:     796682
cpu0_L1D AVERAGE MISS LATENCY: 373.332 cycles
cpu0_L2C TOTAL     ACCESS:   21042803  HIT:   14408398  MISS:    6634405
cpu0_L2C LOAD      ACCESS:    2382356  HIT:    1789641  MISS:     592715
cpu0_L2C RFO       ACCESS:    6475187  HIT:    1296092  MISS:    5179095
cpu0_L2C PREFETCH  ACCESS:    5178094  HIT:    4321268  MISS:     856826
cpu0_L2C WRITEBACK ACCESS:    7002391  HIT:    6998301  MISS:       4090
cpu0_L2C TRANSLATION ACCESS:       4775  HIT:       3096  MISS:       1679
cpu0_L2C PREFETCH  REQUESTED:    2408110  ISSUED:    1893240  USEFUL:      45980  USELESS:      20484
cpu0_L2C AVERAGE MISS LATENCY: 657.01 cycles
LLC TOTAL     ACCESS:   12019224  HIT:    6636576  MISS:    5382648
LLC LOAD      ACCESS:     592699  HIT:     282489  MISS:     310210
LLC RFO       ACCESS:    5179064  HIT:     363870  MISS:    4815194
LLC PREFETCH  ACCESS:     862412  HIT:     624559  MISS:     237853
LLC WRITEBACK ACCESS:    5383370  HIT:    5364687  MISS:      18683
LLC TRANSLATION ACCESS:       1679  HIT:        971  MISS:        708
LLC PREFETCH  REQUESTED:          0  ISSUED:          0  USEFUL:          0  USELESS:          0
LLC AVERAGE MISS LATENCY: 777.761 cycles

DRAM Statistics
 CHANNEL 0
 RQ ROW_BUFFER_HIT:    1311440  ROW_BUFFER_MISS:    4051269
 DBUS AVG_CONGESTED_CYCLE:    3.98247
 WQ ROW_BUFFER_HIT:     751366  ROW_BUFFER_MISS:    4129465  FULL:         53


CPU 0 Branch Prediction Accuracy: 94.2635% MPKI: 7.67363 Average ROB Occupancy at Mispredict: 52.2929
Branch type MPKI
BRANCH_DIRECT_JUMP: 0.003432
BRANCH_INDIRECT: 0.001409
BRANCH_CONDITIONAL: 7.65102
BRANCH_DIRECT_CALL: 0.016796
BRANCH_INDIRECT_CALL: 0
BRANCH_RETURN: 0.000971

