
*** ChampSim Multicore Out-of-Order Simulator ***

Warmup Instructions: 1000000
Simulation Instructions: 1000000000
Number of CPUs: 1
Off-chip DRAM Size: 4 GiB Channels: 1 Width: 64-bit Data Rate: 3200 MT/s

VirtualMemory physical capacity: 8588881920 num_ppages: 2096895
VirtualMemory page size: 4096 log2_page_size: 12

CPU 0 runs tracer/pin/traces/spec2k6/445.gobmk-30B.champsimtrace.xz
Basic BTB sets: 1024 ways: 8 indirect buffer size: 4096 RAS size: 64
cpu0_L1D next line prefetcher
cpu0_L2C IP-based stride prefetcher
WARNING: The extended signature CACHE::prefetch_line(ip, base_addr, pf_addr, fill_this_level, prefetch_metadata) is deprecated.
WARNING: Use CACHE::prefetch_line(pf_addr, fill_this_level, prefetch_metadata) instead.

Warmup complete CPU 0 instructions: 1000003 cycles: 250081 (Simulation time: 0 hr 0 min 2 sec) 

Heartbeat CPU 0 instructions: 10000000 cycles: 11195432 heartbeat IPC: 0.893221 cumulative IPC: 0.822267 (Simulation time: 0 hr 1 min 0 sec) 
Heartbeat CPU 0 instructions: 20000001 cycles: 21933638 heartbeat IPC: 0.931254 cumulative IPC: 0.87624 (Simulation time: 0 hr 1 min 59 sec) 
Heartbeat CPU 0 instructions: 30000001 cycles: 32563683 heartbeat IPC: 0.94073 cumulative IPC: 0.897455 (Simulation time: 0 hr 3 min 2 sec) 
Heartbeat CPU 0 instructions: 40000000 cycles: 43062313 heartbeat IPC: 0.952505 cumulative IPC: 0.910955 (Simulation time: 0 hr 3 min 59 sec) 
Heartbeat CPU 0 instructions: 50000004 cycles: 53739133 heartbeat IPC: 0.936609 cumulative IPC: 0.916075 (Simulation time: 0 hr 4 min 57 sec) 
Heartbeat CPU 0 instructions: 60000001 cycles: 64296743 heartbeat IPC: 0.947184 cumulative IPC: 0.921203 (Simulation time: 0 hr 5 min 55 sec) 
Heartbeat CPU 0 instructions: 70000000 cycles: 75105746 heartbeat IPC: 0.925155 cumulative IPC: 0.921774 (Simulation time: 0 hr 6 min 55 sec) 
Heartbeat CPU 0 instructions: 80000002 cycles: 85169176 heartbeat IPC: 0.993697 cumulative IPC: 0.930297 (Simulation time: 0 hr 7 min 50 sec) 
Heartbeat CPU 0 instructions: 90000001 cycles: 95586554 heartbeat IPC: 0.959934 cumulative IPC: 0.933536 (Simulation time: 0 hr 8 min 37 sec) 
Heartbeat CPU 0 instructions: 100000004 cycles: 106079028 heartbeat IPC: 0.953064 cumulative IPC: 0.935472 (Simulation time: 0 hr 9 min 23 sec) 
Heartbeat CPU 0 instructions: 110000004 cycles: 116605421 heartbeat IPC: 0.949993 cumulative IPC: 0.936786 (Simulation time: 0 hr 10 min 12 sec) 
Heartbeat CPU 0 instructions: 120000000 cycles: 127577370 heartbeat IPC: 0.911415 cumulative IPC: 0.934599 (Simulation time: 0 hr 11 min 3 sec) 
Heartbeat CPU 0 instructions: 130000001 cycles: 138339529 heartbeat IPC: 0.929182 cumulative IPC: 0.934177 (Simulation time: 0 hr 11 min 52 sec) 
Heartbeat CPU 0 instructions: 140000003 cycles: 149371460 heartbeat IPC: 0.90646 cumulative IPC: 0.932127 (Simulation time: 0 hr 12 min 42 sec) 
Heartbeat CPU 0 instructions: 150000004 cycles: 169089823 heartbeat IPC: 0.507142 cumulative IPC: 0.882494 (Simulation time: 0 hr 14 min 49 sec) 
Heartbeat CPU 0 instructions: 160000000 cycles: 210281252 heartbeat IPC: 0.242769 cumulative IPC: 0.75703 (Simulation time: 0 hr 19 min 0 sec) 
Heartbeat CPU 0 instructions: 170000000 cycles: 239552271 heartbeat IPC: 0.341635 cumulative IPC: 0.70622 (Simulation time: 0 hr 21 min 55 sec) 
Heartbeat CPU 0 instructions: 180000002 cycles: 250252360 heartbeat IPC: 0.934572 cumulative IPC: 0.715993 (Simulation time: 0 hr 22 min 44 sec) 
Heartbeat CPU 0 instructions: 190000000 cycles: 260436236 heartbeat IPC: 0.981944 cumulative IPC: 0.726403 (Simulation time: 0 hr 23 min 38 sec) 
Heartbeat CPU 0 instructions: 200000000 cycles: 270468058 heartbeat IPC: 0.996828 cumulative IPC: 0.736443 (Simulation time: 0 hr 24 min 23 sec) 
Heartbeat CPU 0 instructions: 210000000 cycles: 280839550 heartbeat IPC: 0.964181 cumulative IPC: 0.74486 (Simulation time: 0 hr 25 min 17 sec) 
Heartbeat CPU 0 instructions: 220000004 cycles: 291722283 heartbeat IPC: 0.918887 cumulative IPC: 0.751358 (Simulation time: 0 hr 26 min 16 sec) 
Heartbeat CPU 0 instructions: 230000000 cycles: 302407510 heartbeat IPC: 0.935871 cumulative IPC: 0.757883 (Simulation time: 0 hr 27 min 10 sec) 
Heartbeat CPU 0 instructions: 240000000 cycles: 312678653 heartbeat IPC: 0.973601 cumulative IPC: 0.764975 (Simulation time: 0 hr 28 min 5 sec) 
Heartbeat CPU 0 instructions: 250000000 cycles: 323094411 heartbeat IPC: 0.960084 cumulative IPC: 0.77127 (Simulation time: 0 hr 28 min 58 sec) 
Heartbeat CPU 0 instructions: 260000002 cycles: 333604179 heartbeat IPC: 0.951496 cumulative IPC: 0.776952 (Simulation time: 0 hr 29 min 48 sec) 
Heartbeat CPU 0 instructions: 270000002 cycles: 344127075 heartbeat IPC: 0.950309 cumulative IPC: 0.782256 (Simulation time: 0 hr 30 min 37 sec) 
Heartbeat CPU 0 instructions: 280000004 cycles: 354611140 heartbeat IPC: 0.953829 cumulative IPC: 0.787333 (Simulation time: 0 hr 31 min 31 sec) 
Heartbeat CPU 0 instructions: 290000004 cycles: 365114467 heartbeat IPC: 0.952079 cumulative IPC: 0.792075 (Simulation time: 0 hr 32 min 21 sec) 
Heartbeat CPU 0 instructions: 300000000 cycles: 375831659 heartbeat IPC: 0.93308 cumulative IPC: 0.796099 (Simulation time: 0 hr 33 min 9 sec) 
Heartbeat CPU 0 instructions: 310000000 cycles: 386474783 heartbeat IPC: 0.939574 cumulative IPC: 0.800052 (Simulation time: 0 hr 33 min 59 sec) 
Heartbeat CPU 0 instructions: 320000003 cycles: 397085793 heartbeat IPC: 0.942418 cumulative IPC: 0.803859 (Simulation time: 0 hr 34 min 50 sec) 
Heartbeat CPU 0 instructions: 330000000 cycles: 406930264 heartbeat IPC: 1.0158 cumulative IPC: 0.80899 (Simulation time: 0 hr 35 min 45 sec) 
Heartbeat CPU 0 instructions: 340000003 cycles: 416223041 heartbeat IPC: 1.0761 cumulative IPC: 0.814957 (Simulation time: 0 hr 36 min 43 sec) 
Heartbeat CPU 0 instructions: 350000002 cycles: 426207490 heartbeat IPC: 1.00156 cumulative IPC: 0.819331 (Simulation time: 0 hr 37 min 40 sec) 
Heartbeat CPU 0 instructions: 360000004 cycles: 436817459 heartbeat IPC: 0.94251 cumulative IPC: 0.822324 (Simulation time: 0 hr 38 min 36 sec) 
Heartbeat CPU 0 instructions: 370000001 cycles: 447629441 heartbeat IPC: 0.9249 cumulative IPC: 0.824803 (Simulation time: 0 hr 39 min 30 sec) 
Heartbeat CPU 0 instructions: 380000002 cycles: 458454778 heartbeat IPC: 0.923759 cumulative IPC: 0.827141 (Simulation time: 0 hr 40 min 20 sec) 
Heartbeat CPU 0 instructions: 390000001 cycles: 469674634 heartbeat IPC: 0.891277 cumulative IPC: 0.828674 (Simulation time: 0 hr 41 min 13 sec) 
Heartbeat CPU 0 instructions: 400000000 cycles: 480646297 heartbeat IPC: 0.911439 cumulative IPC: 0.830564 (Simulation time: 0 hr 42 min 5 sec) 
Heartbeat CPU 0 instructions: 410000000 cycles: 491585921 heartbeat IPC: 0.914108 cumulative IPC: 0.832425 (Simulation time: 0 hr 42 min 57 sec) 
Heartbeat CPU 0 instructions: 420000000 cycles: 502388947 heartbeat IPC: 0.925667 cumulative IPC: 0.834431 (Simulation time: 0 hr 43 min 49 sec) 
Heartbeat CPU 0 instructions: 430000002 cycles: 513019536 heartbeat IPC: 0.940682 cumulative IPC: 0.836633 (Simulation time: 0 hr 44 min 41 sec) 
Heartbeat CPU 0 instructions: 440000001 cycles: 523846931 heartbeat IPC: 0.923583 cumulative IPC: 0.838431 (Simulation time: 0 hr 45 min 32 sec) 
Heartbeat CPU 0 instructions: 450000000 cycles: 534842772 heartbeat IPC: 0.909435 cumulative IPC: 0.839892 (Simulation time: 0 hr 46 min 23 sec) 
Heartbeat CPU 0 instructions: 460000004 cycles: 545752885 heartbeat IPC: 0.916581 cumulative IPC: 0.841426 (Simulation time: 0 hr 47 min 12 sec) 
Heartbeat CPU 0 instructions: 470000001 cycles: 556420099 heartbeat IPC: 0.937452 cumulative IPC: 0.843267 (Simulation time: 0 hr 48 min 2 sec) 
Heartbeat CPU 0 instructions: 480000001 cycles: 567223663 heartbeat IPC: 0.92562 cumulative IPC: 0.844837 (Simulation time: 0 hr 48 min 52 sec) 
Heartbeat CPU 0 instructions: 490000000 cycles: 577919036 heartbeat IPC: 0.934984 cumulative IPC: 0.846506 (Simulation time: 0 hr 49 min 41 sec) 
Heartbeat CPU 0 instructions: 500000003 cycles: 588619562 heartbeat IPC: 0.934534 cumulative IPC: 0.848107 (Simulation time: 0 hr 50 min 30 sec) 
Heartbeat CPU 0 instructions: 510000000 cycles: 599583567 heartbeat IPC: 0.912075 cumulative IPC: 0.849277 (Simulation time: 0 hr 51 min 19 sec) 
Heartbeat CPU 0 instructions: 520000004 cycles: 610183928 heartbeat IPC: 0.943365 cumulative IPC: 0.850912 (Simulation time: 0 hr 52 min 8 sec) 
Heartbeat CPU 0 instructions: 530000000 cycles: 621022416 heartbeat IPC: 0.922638 cumulative IPC: 0.852164 (Simulation time: 0 hr 52 min 59 sec) 
Heartbeat CPU 0 instructions: 540000000 cycles: 631720249 heartbeat IPC: 0.934769 cumulative IPC: 0.853564 (Simulation time: 0 hr 53 min 47 sec) 
Heartbeat CPU 0 instructions: 550000003 cycles: 642316201 heartbeat IPC: 0.943757 cumulative IPC: 0.855052 (Simulation time: 0 hr 54 min 36 sec) 
Heartbeat CPU 0 instructions: 560000001 cycles: 652956065 heartbeat IPC: 0.939861 cumulative IPC: 0.856435 (Simulation time: 0 hr 55 min 24 sec) 
Heartbeat CPU 0 instructions: 570000004 cycles: 663703215 heartbeat IPC: 0.93048 cumulative IPC: 0.857634 (Simulation time: 0 hr 56 min 12 sec) 
Heartbeat CPU 0 instructions: 580000004 cycles: 674251662 heartbeat IPC: 0.948007 cumulative IPC: 0.859048 (Simulation time: 0 hr 56 min 58 sec) 
Heartbeat CPU 0 instructions: 590000003 cycles: 685071166 heartbeat IPC: 0.924257 cumulative IPC: 0.860079 (Simulation time: 0 hr 57 min 45 sec) 
Heartbeat CPU 0 instructions: 600000003 cycles: 695794047 heartbeat IPC: 0.932585 cumulative IPC: 0.861196 (Simulation time: 0 hr 58 min 32 sec) 
Heartbeat CPU 0 instructions: 610000004 cycles: 706311903 heartbeat IPC: 0.950764 cumulative IPC: 0.862531 (Simulation time: 0 hr 59 min 17 sec) 
Heartbeat CPU 0 instructions: 620000000 cycles: 717269484 heartbeat IPC: 0.91261 cumulative IPC: 0.863296 (Simulation time: 1 hr 0 min 3 sec) 
Heartbeat CPU 0 instructions: 630000002 cycles: 727792783 heartbeat IPC: 0.950273 cumulative IPC: 0.864554 (Simulation time: 1 hr 0 min 48 sec) 
Heartbeat CPU 0 instructions: 640000001 cycles: 738378807 heartbeat IPC: 0.944642 cumulative IPC: 0.865703 (Simulation time: 1 hr 1 min 32 sec) 
Heartbeat CPU 0 instructions: 650000001 cycles: 749046169 heartbeat IPC: 0.937439 cumulative IPC: 0.866725 (Simulation time: 1 hr 2 min 18 sec) 
Heartbeat CPU 0 instructions: 660000001 cycles: 759858322 heartbeat IPC: 0.924885 cumulative IPC: 0.867552 (Simulation time: 1 hr 3 min 6 sec) 
Heartbeat CPU 0 instructions: 670000002 cycles: 770586304 heartbeat IPC: 0.932142 cumulative IPC: 0.868452 (Simulation time: 1 hr 3 min 54 sec) 
Heartbeat CPU 0 instructions: 680000002 cycles: 781613337 heartbeat IPC: 0.906862 cumulative IPC: 0.868994 (Simulation time: 1 hr 4 min 41 sec) 
Heartbeat CPU 0 instructions: 690000000 cycles: 792337216 heartbeat IPC: 0.932498 cumulative IPC: 0.869854 (Simulation time: 1 hr 5 min 29 sec) 
Heartbeat CPU 0 instructions: 700000004 cycles: 803283042 heartbeat IPC: 0.913591 cumulative IPC: 0.87045 (Simulation time: 1 hr 6 min 17 sec) 
Heartbeat CPU 0 instructions: 710000001 cycles: 814313954 heartbeat IPC: 0.906543 cumulative IPC: 0.870939 (Simulation time: 1 hr 7 min 5 sec) 
Heartbeat CPU 0 instructions: 720000001 cycles: 825127711 heartbeat IPC: 0.924748 cumulative IPC: 0.871644 (Simulation time: 1 hr 7 min 52 sec) 
Heartbeat CPU 0 instructions: 730000001 cycles: 836076078 heartbeat IPC: 0.913378 cumulative IPC: 0.872191 (Simulation time: 1 hr 8 min 39 sec) 
Heartbeat CPU 0 instructions: 740000000 cycles: 846978919 heartbeat IPC: 0.917192 cumulative IPC: 0.872771 (Simulation time: 1 hr 9 min 25 sec) 
Heartbeat CPU 0 instructions: 750000004 cycles: 857750061 heartbeat IPC: 0.928407 cumulative IPC: 0.873469 (Simulation time: 1 hr 10 min 13 sec) 
Heartbeat CPU 0 instructions: 760000003 cycles: 868708544 heartbeat IPC: 0.912535 cumulative IPC: 0.873962 (Simulation time: 1 hr 10 min 58 sec) 
Heartbeat CPU 0 instructions: 770000000 cycles: 879484806 heartbeat IPC: 0.927965 cumulative IPC: 0.874624 (Simulation time: 1 hr 11 min 42 sec) 
Heartbeat CPU 0 instructions: 780000000 cycles: 890658644 heartbeat IPC: 0.894948 cumulative IPC: 0.874879 (Simulation time: 1 hr 12 min 28 sec) 
Heartbeat CPU 0 instructions: 790000000 cycles: 901703115 heartbeat IPC: 0.90543 cumulative IPC: 0.875254 (Simulation time: 1 hr 13 min 13 sec) 
Heartbeat CPU 0 instructions: 800000000 cycles: 912521031 heartbeat IPC: 0.924392 cumulative IPC: 0.875836 (Simulation time: 1 hr 13 min 54 sec) 
Heartbeat CPU 0 instructions: 810000000 cycles: 923015948 heartbeat IPC: 0.952842 cumulative IPC: 0.876712 (Simulation time: 1 hr 14 min 34 sec) 
Heartbeat CPU 0 instructions: 820000001 cycles: 933343824 heartbeat IPC: 0.968253 cumulative IPC: 0.877725 (Simulation time: 1 hr 15 min 13 sec) 
Heartbeat CPU 0 instructions: 830000003 cycles: 943815653 heartbeat IPC: 0.954943 cumulative IPC: 0.878582 (Simulation time: 1 hr 15 min 53 sec) 
Heartbeat CPU 0 instructions: 840000000 cycles: 954152172 heartbeat IPC: 0.967443 cumulative IPC: 0.879545 (Simulation time: 1 hr 16 min 31 sec) 
Heartbeat CPU 0 instructions: 850000001 cycles: 964201347 heartbeat IPC: 0.995107 cumulative IPC: 0.88075 (Simulation time: 1 hr 17 min 11 sec) 
Heartbeat CPU 0 instructions: 860000000 cycles: 974919215 heartbeat IPC: 0.933021 cumulative IPC: 0.881325 (Simulation time: 1 hr 17 min 50 sec) 
Heartbeat CPU 0 instructions: 870000000 cycles: 985453978 heartbeat IPC: 0.949238 cumulative IPC: 0.882051 (Simulation time: 1 hr 18 min 29 sec) 
Heartbeat CPU 0 instructions: 880000000 cycles: 996220492 heartbeat IPC: 0.928806 cumulative IPC: 0.882556 (Simulation time: 1 hr 19 min 8 sec) 
Heartbeat CPU 0 instructions: 890000000 cycles: 1007297255 heartbeat IPC: 0.902791 cumulative IPC: 0.882779 (Simulation time: 1 hr 19 min 49 sec) 
Heartbeat CPU 0 instructions: 900000002 cycles: 1018111125 heartbeat IPC: 0.924739 cumulative IPC: 0.883225 (Simulation time: 1 hr 20 min 28 sec) 
Heartbeat CPU 0 instructions: 910000001 cycles: 1028569513 heartbeat IPC: 0.95617 cumulative IPC: 0.883967 (Simulation time: 1 hr 21 min 6 sec) 
Heartbeat CPU 0 instructions: 920000000 cycles: 1039498504 heartbeat IPC: 0.914997 cumulative IPC: 0.884293 (Simulation time: 1 hr 21 min 46 sec) 
Heartbeat CPU 0 instructions: 930000000 cycles: 1050300095 heartbeat IPC: 0.92579 cumulative IPC: 0.88472 (Simulation time: 1 hr 22 min 25 sec) 
Heartbeat CPU 0 instructions: 940000001 cycles: 1061247941 heartbeat IPC: 0.913422 cumulative IPC: 0.885016 (Simulation time: 1 hr 23 min 3 sec) 
Heartbeat CPU 0 instructions: 950000002 cycles: 1072410814 heartbeat IPC: 0.895827 cumulative IPC: 0.885128 (Simulation time: 1 hr 23 min 43 sec) 
Heartbeat CPU 0 instructions: 960000001 cycles: 1083284391 heartbeat IPC: 0.91966 cumulative IPC: 0.885475 (Simulation time: 1 hr 24 min 21 sec) 
Heartbeat CPU 0 instructions: 970000001 cycles: 1094099071 heartbeat IPC: 0.924669 cumulative IPC: 0.885863 (Simulation time: 1 hr 25 min 0 sec) 
Heartbeat CPU 0 instructions: 980000000 cycles: 1105195358 heartbeat IPC: 0.901202 cumulative IPC: 0.886017 (Simulation time: 1 hr 25 min 39 sec) 
Heartbeat CPU 0 instructions: 990000002 cycles: 1116060477 heartbeat IPC: 0.920377 cumulative IPC: 0.886351 (Simulation time: 1 hr 26 min 17 sec) 
Heartbeat CPU 0 instructions: 1000000000 cycles: 1126936953 heartbeat IPC: 0.919415 cumulative IPC: 0.88667 (Simulation time: 1 hr 26 min 55 sec) 
Finished CPU 0 instructions: 1000000000 cycles: 1127833263 cumulative IPC: 0.886656 (Simulation time: 1 hr 26 min 59 sec) 

ChampSim completed all CPUs

Region of Interest Statistics

CPU 0 cumulative IPC: 0.886656 instructions: 1000000000 cycles: 1127833263
cpu0_DTLB TOTAL     ACCESS:  223130607  HIT:  222576249  MISS:     554358
cpu0_DTLB LOAD      ACCESS:  150885186  HIT:  150413114  MISS:     472072
cpu0_DTLB RFO       ACCESS:   72245421  HIT:   72163135  MISS:      82286
cpu0_DTLB PREFETCH  ACCESS:          0  HIT:          0  MISS:          0
cpu0_DTLB WRITEBACK ACCESS:          0  HIT:          0  MISS:          0
cpu0_DTLB TRANSLATION ACCESS:          0  HIT:          0  MISS:          0
cpu0_DTLB PREFETCH  REQUESTED:          0  ISSUED:          0  USEFUL:          0  USELESS:          0
cpu0_DTLB AVERAGE MISS LATENCY: 12.5977 cycles
cpu0_ITLB TOTAL     ACCESS:   78447217  HIT:   78444516  MISS:       2701
cpu0_ITLB LOAD      ACCESS:   78447217  HIT:   78444516  MISS:       2701
cpu0_ITLB RFO       ACCESS:          0  HIT:          0  MISS:          0
cpu0_ITLB PREFETCH  ACCESS:          0  HIT:          0  MISS:          0
cpu0_ITLB WRITEBACK ACCESS:          0  HIT:          0  MISS:          0
cpu0_ITLB TRANSLATION ACCESS:          0  HIT:          0  MISS:          0
cpu0_ITLB PREFETCH  REQUESTED:          0  ISSUED:          0  USEFUL:          0  USELESS:          0
cpu0_ITLB AVERAGE MISS LATENCY: 24.7945 cycles
cpu0_L1I TOTAL     ACCESS:  106893307  HIT:  103034489  MISS:    3858818
cpu0_L1I LOAD      ACCESS:  106893307  HIT:  103034489  MISS:    3858818
cpu0_L1I RFO       ACCESS:          0  HIT:          0  MISS:          0
cpu0_L1I PREFETCH  ACCESS:          0  HIT:          0  MISS:          0
cpu0_L1I WRITEBACK ACCESS:          0  HIT:          0  MISS:          0
cpu0_L1I TRANSLATION ACCESS:          0  HIT:          0  MISS:          0
cpu0_L1I PREFETCH  REQUESTED:          0  ISSUED:          0  USEFUL:          0  USELESS:          0
cpu0_L1I AVERAGE MISS LATENCY: 16.1292 cycles
cpu0_STLB TOTAL     ACCESS:     557059  HIT:     508360  MISS:      48699
cpu0_STLB LOAD      ACCESS:     474773  HIT:     439221  MISS:      35552
cpu0_STLB RFO       ACCESS:      82286  HIT:      69139  MISS:      13147
cpu0_STLB PREFETCH  ACCESS:          0  HIT:          0  MISS:          0
cpu0_STLB WRITEBACK ACCESS:          0  HIT:          0  MISS:          0
cpu0_STLB TRANSLATION ACCESS:          0  HIT:          0  MISS:          0
cpu0_STLB PREFETCH  REQUESTED:          0  ISSUED:          0  USEFUL:          0  USELESS:          0
cpu0_STLB AVERAGE MISS LATENCY: 41.7721 cycles
cpu0_L1D TOTAL     ACCESS:  430910478  HIT:  423535959  MISS:    7374519
cpu0_L1D LOAD      ACCESS:  152241837  HIT:  149988698  MISS:    2253139
cpu0_L1D RFO       ACCESS:  127604344  HIT:  125106828  MISS:    2497516
cpu0_L1D PREFETCH  ACCESS:  151015695  HIT:  148409853  MISS:    2605842
cpu0_L1D WRITEBACK ACCESS:          0  HIT:          0  MISS:          0
cpu0_L1D TRANSLATION ACCESS:      48602  HIT:      30580  MISS:      18022
cpu0_L1D PREFETCH  REQUESTED:  152471821  ISSUED:  152059711  USEFUL:    2077977  USELESS:     711920
cpu0_L1D AVERAGE MISS LATENCY: 120.869 cycles
cpu0_L2C TOTAL     ACCESS:   15643899  HIT:   12583280  MISS:    3060619
cpu0_L2C LOAD      ACCESS:    5930269  HIT:    4935893  MISS:     994376
cpu0_L2C RFO       ACCESS:    2494327  HIT:    1408666  MISS:    1085661
cpu0_L2C PREFETCH  ACCESS:    3711103  HIT:    2738159  MISS:     972944
cpu0_L2C WRITEBACK ACCESS:    3490178  HIT:    3484163  MISS:       6015
cpu0_L2C TRANSLATION ACCESS:      18022  HIT:      16399  MISS:       1623
cpu0_L2C PREFETCH  REQUESTED:    1049271  ISSUED:     935822  USEFUL:      41133  USELESS:      24503
cpu0_L2C AVERAGE MISS LATENCY: 269.216 cycles
LLC TOTAL     ACCESS:    4541316  HIT:    3362366  MISS:    1178950
LLC LOAD      ACCESS:     994360  HIT:     832874  MISS:     161486
LLC RFO       ACCESS:    1085642  HIT:     328838  MISS:     756804
LLC PREFETCH  ACCESS:     974370  HIT:     718155  MISS:     256215
LLC WRITEBACK ACCESS:    1485321  HIT:    1480912  MISS:       4409
LLC TRANSLATION ACCESS:       1623  HIT:       1587  MISS:         36
LLC PREFETCH  REQUESTED:          0  ISSUED:          0  USEFUL:          0  USELESS:          0
LLC AVERAGE MISS LATENCY: 629.332 cycles

DRAM Statistics
 CHANNEL 0
 RQ ROW_BUFFER_HIT:     196192  ROW_BUFFER_MISS:     978276
 DBUS AVG_CONGESTED_CYCLE:    3.92264
 WQ ROW_BUFFER_HIT:     173433  ROW_BUFFER_MISS:     790324  FULL:          0


CPU 0 Branch Prediction Accuracy: 89.3165% MPKI: 20.0625 Average ROB Occupancy at Mispredict: 16.3357
Branch type MPKI
BRANCH_DIRECT_JUMP: 0.001443
BRANCH_INDIRECT: 0.00018
BRANCH_CONDITIONAL: 20.0357
BRANCH_DIRECT_CALL: 0.002422
BRANCH_INDIRECT_CALL: 0.018167
BRANCH_RETURN: 0.004597

