
*** ChampSim Multicore Out-of-Order Simulator ***

Warmup Instructions: 200000000
Simulation Instructions: 1000000000
Number of CPUs: 1
Off-chip DRAM Size: 4 GiB Channels: 1 Width: 64-bit Data Rate: 3200 MT/s

VirtualMemory physical capacity: 8588881920 num_ppages: 2096895
VirtualMemory page size: 4096 log2_page_size: 12

CPU 0 runs tracer/pin/traces/xs-100hashxl-2.champsim.xz
Basic BTB sets: 1024 ways: 8 indirect buffer size: 4096 RAS size: 64
cpu0_L1D next line prefetcher
cpu0_L2C IP-based stride prefetcher
WARNING: The extended signature CACHE::prefetch_line(ip, base_addr, pf_addr, fill_this_level, prefetch_metadata) is deprecated.
WARNING: Use CACHE::prefetch_line(pf_addr, fill_this_level, prefetch_metadata) instead.
Heartbeat CPU 0 instructions: 10000003 cycles: 2500073 heartbeat IPC: 3.99988 cumulative IPC: 3.99988 (Simulation time: 0 hr 0 min 21 sec) 
Heartbeat CPU 0 instructions: 20000003 cycles: 5000073 heartbeat IPC: 4 cumulative IPC: 3.99994 (Simulation time: 0 hr 0 min 42 sec) 
Heartbeat CPU 0 instructions: 30000003 cycles: 7500073 heartbeat IPC: 4 cumulative IPC: 3.99996 (Simulation time: 0 hr 1 min 4 sec) 
Heartbeat CPU 0 instructions: 40000003 cycles: 10000073 heartbeat IPC: 4 cumulative IPC: 3.99997 (Simulation time: 0 hr 1 min 25 sec) 
Heartbeat CPU 0 instructions: 50000003 cycles: 12500073 heartbeat IPC: 4 cumulative IPC: 3.99998 (Simulation time: 0 hr 1 min 45 sec) 
Heartbeat CPU 0 instructions: 60000003 cycles: 15000073 heartbeat IPC: 4 cumulative IPC: 3.99998 (Simulation time: 0 hr 2 min 6 sec) 
Heartbeat CPU 0 instructions: 70000003 cycles: 17500073 heartbeat IPC: 4 cumulative IPC: 3.99998 (Simulation time: 0 hr 2 min 27 sec) 
Heartbeat CPU 0 instructions: 80000003 cycles: 20000073 heartbeat IPC: 4 cumulative IPC: 3.99999 (Simulation time: 0 hr 2 min 48 sec) 
Heartbeat CPU 0 instructions: 90000003 cycles: 22500073 heartbeat IPC: 4 cumulative IPC: 3.99999 (Simulation time: 0 hr 3 min 10 sec) 
Heartbeat CPU 0 instructions: 100000003 cycles: 25000073 heartbeat IPC: 4 cumulative IPC: 3.99999 (Simulation time: 0 hr 3 min 31 sec) 
Heartbeat CPU 0 instructions: 110000003 cycles: 27500073 heartbeat IPC: 4 cumulative IPC: 3.99999 (Simulation time: 0 hr 3 min 51 sec) 
Heartbeat CPU 0 instructions: 120000003 cycles: 30000073 heartbeat IPC: 4 cumulative IPC: 3.99999 (Simulation time: 0 hr 4 min 12 sec) 
Heartbeat CPU 0 instructions: 130000003 cycles: 32500073 heartbeat IPC: 4 cumulative IPC: 3.99999 (Simulation time: 0 hr 4 min 33 sec) 
Heartbeat CPU 0 instructions: 140000003 cycles: 35000073 heartbeat IPC: 4 cumulative IPC: 3.99999 (Simulation time: 0 hr 4 min 54 sec) 
Heartbeat CPU 0 instructions: 150000003 cycles: 37500073 heartbeat IPC: 4 cumulative IPC: 3.99999 (Simulation time: 0 hr 5 min 15 sec) 
Heartbeat CPU 0 instructions: 160000003 cycles: 40000073 heartbeat IPC: 4 cumulative IPC: 3.99999 (Simulation time: 0 hr 5 min 36 sec) 
Heartbeat CPU 0 instructions: 170000003 cycles: 42500073 heartbeat IPC: 4 cumulative IPC: 3.99999 (Simulation time: 0 hr 5 min 57 sec) 
Heartbeat CPU 0 instructions: 180000003 cycles: 45000073 heartbeat IPC: 4 cumulative IPC: 3.99999 (Simulation time: 0 hr 6 min 18 sec) 
Heartbeat CPU 0 instructions: 190000003 cycles: 47500073 heartbeat IPC: 4 cumulative IPC: 3.99999 (Simulation time: 0 hr 6 min 39 sec) 
Heartbeat CPU 0 instructions: 200000003 cycles: 50000073 heartbeat IPC: 4 cumulative IPC: 3.99999 (Simulation time: 0 hr 7 min 0 sec) 

Warmup complete CPU 0 instructions: 200000003 cycles: 50000073 (Simulation time: 0 hr 7 min 0 sec) 

Heartbeat CPU 0 instructions: 210000003 cycles: 118933392 heartbeat IPC: 0.145068 cumulative IPC: 0.145068 (Simulation time: 0 hr 9 min 1 sec) 
Heartbeat CPU 0 instructions: 220000000 cycles: 187638719 heartbeat IPC: 0.145549 cumulative IPC: 0.145308 (Simulation time: 0 hr 11 min 7 sec) 
Heartbeat CPU 0 instructions: 230000002 cycles: 256347427 heartbeat IPC: 0.145542 cumulative IPC: 0.145386 (Simulation time: 0 hr 13 min 11 sec) 
Heartbeat CPU 0 instructions: 240000000 cycles: 325416511 heartbeat IPC: 0.144783 cumulative IPC: 0.145235 (Simulation time: 0 hr 15 min 21 sec) 
Heartbeat CPU 0 instructions: 250000001 cycles: 393730610 heartbeat IPC: 0.146383 cumulative IPC: 0.145463 (Simulation time: 0 hr 17 min 58 sec) 
Heartbeat CPU 0 instructions: 260000002 cycles: 461974305 heartbeat IPC: 0.146534 cumulative IPC: 0.14564 (Simulation time: 0 hr 20 min 42 sec) 
Heartbeat CPU 0 instructions: 270000001 cycles: 529931053 heartbeat IPC: 0.147152 cumulative IPC: 0.145854 (Simulation time: 0 hr 22 min 52 sec) 
Heartbeat CPU 0 instructions: 280000000 cycles: 597881291 heartbeat IPC: 0.147167 cumulative IPC: 0.146017 (Simulation time: 0 hr 24 min 54 sec) 
Heartbeat CPU 0 instructions: 290000000 cycles: 666251233 heartbeat IPC: 0.146263 cumulative IPC: 0.146044 (Simulation time: 0 hr 27 min 13 sec) 
Heartbeat CPU 0 instructions: 300000003 cycles: 733990502 heartbeat IPC: 0.147625 cumulative IPC: 0.146201 (Simulation time: 0 hr 29 min 54 sec) 
Heartbeat CPU 0 instructions: 310000000 cycles: 802041086 heartbeat IPC: 0.146949 cumulative IPC: 0.146269 (Simulation time: 0 hr 32 min 8 sec) 
Heartbeat CPU 0 instructions: 320000000 cycles: 869116904 heartbeat IPC: 0.149085 cumulative IPC: 0.146499 (Simulation time: 0 hr 35 min 2 sec) 
Heartbeat CPU 0 instructions: 330000000 cycles: 937241227 heartbeat IPC: 0.14679 cumulative IPC: 0.146522 (Simulation time: 0 hr 37 min 30 sec) 
Heartbeat CPU 0 instructions: 340000002 cycles: 1004769642 heartbeat IPC: 0.148086 cumulative IPC: 0.146632 (Simulation time: 0 hr 40 min 7 sec) 
Heartbeat CPU 0 instructions: 350000000 cycles: 1072883305 heartbeat IPC: 0.146813 cumulative IPC: 0.146644 (Simulation time: 0 hr 43 min 8 sec) 
Heartbeat CPU 0 instructions: 360000003 cycles: 1140162812 heartbeat IPC: 0.148634 cumulative IPC: 0.146767 (Simulation time: 0 hr 46 min 12 sec) 
Heartbeat CPU 0 instructions: 370000000 cycles: 1207442441 heartbeat IPC: 0.148633 cumulative IPC: 0.146876 (Simulation time: 0 hr 49 min 15 sec) 
Heartbeat CPU 0 instructions: 380000000 cycles: 1275413146 heartbeat IPC: 0.147122 cumulative IPC: 0.146889 (Simulation time: 0 hr 52 min 7 sec) 
Heartbeat CPU 0 instructions: 390000004 cycles: 1342655961 heartbeat IPC: 0.148715 cumulative IPC: 0.146984 (Simulation time: 0 hr 54 min 59 sec) 
Heartbeat CPU 0 instructions: 400000000 cycles: 1409967617 heartbeat IPC: 0.148563 cumulative IPC: 0.147062 (Simulation time: 0 hr 58 min 0 sec) 
Heartbeat CPU 0 instructions: 410000000 cycles: 1477799540 heartbeat IPC: 0.147423 cumulative IPC: 0.147079 (Simulation time: 1 hr 0 min 50 sec) 
Heartbeat CPU 0 instructions: 420000004 cycles: 1545343338 heartbeat IPC: 0.148052 cumulative IPC: 0.147123 (Simulation time: 1 hr 3 min 50 sec) 
Heartbeat CPU 0 instructions: 430000000 cycles: 1613068092 heartbeat IPC: 0.147656 cumulative IPC: 0.147147 (Simulation time: 1 hr 6 min 57 sec) 
Heartbeat CPU 0 instructions: 440000002 cycles: 1680587457 heartbeat IPC: 0.148106 cumulative IPC: 0.147186 (Simulation time: 1 hr 9 min 59 sec) 
Heartbeat CPU 0 instructions: 450000004 cycles: 1747807925 heartbeat IPC: 0.148764 cumulative IPC: 0.147249 (Simulation time: 1 hr 12 min 49 sec) 
Heartbeat CPU 0 instructions: 460000003 cycles: 1815277164 heartbeat IPC: 0.148216 cumulative IPC: 0.147286 (Simulation time: 1 hr 15 min 31 sec) 
Heartbeat CPU 0 instructions: 470000003 cycles: 1882665679 heartbeat IPC: 0.148393 cumulative IPC: 0.147326 (Simulation time: 1 hr 18 min 7 sec) 
Heartbeat CPU 0 instructions: 480000001 cycles: 1950230726 heartbeat IPC: 0.148005 cumulative IPC: 0.147351 (Simulation time: 1 hr 20 min 56 sec) 
Heartbeat CPU 0 instructions: 490000000 cycles: 2017405233 heartbeat IPC: 0.148866 cumulative IPC: 0.147402 (Simulation time: 1 hr 23 min 35 sec) 
Heartbeat CPU 0 instructions: 500000003 cycles: 2084681936 heartbeat IPC: 0.14864 cumulative IPC: 0.147443 (Simulation time: 1 hr 26 min 22 sec) 
Heartbeat CPU 0 instructions: 510000004 cycles: 2151742489 heartbeat IPC: 0.149119 cumulative IPC: 0.147497 (Simulation time: 1 hr 29 min 1 sec) 
Heartbeat CPU 0 instructions: 520000000 cycles: 2219151821 heartbeat IPC: 0.148347 cumulative IPC: 0.147523 (Simulation time: 1 hr 31 min 40 sec) 
Heartbeat CPU 0 instructions: 530000004 cycles: 2286502082 heartbeat IPC: 0.148478 cumulative IPC: 0.147552 (Simulation time: 1 hr 34 min 13 sec) 
Heartbeat CPU 0 instructions: 540000000 cycles: 2353886493 heartbeat IPC: 0.148402 cumulative IPC: 0.147577 (Simulation time: 1 hr 36 min 40 sec) 
Heartbeat CPU 0 instructions: 550000002 cycles: 2421425344 heartbeat IPC: 0.148063 cumulative IPC: 0.147591 (Simulation time: 1 hr 39 min 14 sec) 
Heartbeat CPU 0 instructions: 560000000 cycles: 2488506623 heartbeat IPC: 0.149073 cumulative IPC: 0.147631 (Simulation time: 1 hr 42 min 0 sec) 
Heartbeat CPU 0 instructions: 570000000 cycles: 2555676619 heartbeat IPC: 0.148876 cumulative IPC: 0.147665 (Simulation time: 1 hr 44 min 38 sec) 
Heartbeat CPU 0 instructions: 580000001 cycles: 2623225127 heartbeat IPC: 0.148042 cumulative IPC: 0.147675 (Simulation time: 1 hr 47 min 22 sec) 
Heartbeat CPU 0 instructions: 590000002 cycles: 2690355768 heartbeat IPC: 0.148963 cumulative IPC: 0.147707 (Simulation time: 1 hr 50 min 8 sec) 
Heartbeat CPU 0 instructions: 600000004 cycles: 2757875578 heartbeat IPC: 0.148105 cumulative IPC: 0.147717 (Simulation time: 1 hr 52 min 52 sec) 
Heartbeat CPU 0 instructions: 610000001 cycles: 2824979311 heartbeat IPC: 0.149023 cumulative IPC: 0.147749 (Simulation time: 1 hr 55 min 38 sec) 
Heartbeat CPU 0 instructions: 620000001 cycles: 2892327356 heartbeat IPC: 0.148482 cumulative IPC: 0.147766 (Simulation time: 1 hr 58 min 21 sec) 
Heartbeat CPU 0 instructions: 630000000 cycles: 2960071856 heartbeat IPC: 0.147613 cumulative IPC: 0.147763 (Simulation time: 2 hr 0 min 59 sec) 
Heartbeat CPU 0 instructions: 640000004 cycles: 3027564482 heartbeat IPC: 0.148164 cumulative IPC: 0.147772 (Simulation time: 2 hr 3 min 39 sec) 
Heartbeat CPU 0 instructions: 650000004 cycles: 3094779819 heartbeat IPC: 0.148776 cumulative IPC: 0.147794 (Simulation time: 2 hr 6 min 12 sec) 
Heartbeat CPU 0 instructions: 660000001 cycles: 3161489756 heartbeat IPC: 0.149903 cumulative IPC: 0.147839 (Simulation time: 2 hr 8 min 44 sec) 
Heartbeat CPU 0 instructions: 670000002 cycles: 3228704972 heartbeat IPC: 0.148776 cumulative IPC: 0.147859 (Simulation time: 2 hr 11 min 24 sec) 
Heartbeat CPU 0 instructions: 680000000 cycles: 3296235664 heartbeat IPC: 0.148081 cumulative IPC: 0.147864 (Simulation time: 2 hr 13 min 42 sec) 
Heartbeat CPU 0 instructions: 690000002 cycles: 3363463829 heartbeat IPC: 0.148747 cumulative IPC: 0.147882 (Simulation time: 2 hr 15 min 43 sec) 
Heartbeat CPU 0 instructions: 700000000 cycles: 3430929942 heartbeat IPC: 0.148223 cumulative IPC: 0.147888 (Simulation time: 2 hr 17 min 44 sec) 
Heartbeat CPU 0 instructions: 710000002 cycles: 3498181048 heartbeat IPC: 0.148696 cumulative IPC: 0.147904 (Simulation time: 2 hr 19 min 46 sec) 
Heartbeat CPU 0 instructions: 720000001 cycles: 3565369791 heartbeat IPC: 0.148834 cumulative IPC: 0.147922 (Simulation time: 2 hr 21 min 47 sec) 
Heartbeat CPU 0 instructions: 730000000 cycles: 3632896317 heartbeat IPC: 0.14809 cumulative IPC: 0.147925 (Simulation time: 2 hr 23 min 48 sec) 
Heartbeat CPU 0 instructions: 740000000 cycles: 3699940414 heartbeat IPC: 0.149156 cumulative IPC: 0.147948 (Simulation time: 2 hr 25 min 50 sec) 
Heartbeat CPU 0 instructions: 750000000 cycles: 3766758961 heartbeat IPC: 0.149659 cumulative IPC: 0.147978 (Simulation time: 2 hr 27 min 52 sec) 
Heartbeat CPU 0 instructions: 760000002 cycles: 3834122518 heartbeat IPC: 0.148448 cumulative IPC: 0.147987 (Simulation time: 2 hr 29 min 56 sec) 
Heartbeat CPU 0 instructions: 770000004 cycles: 3901489300 heartbeat IPC: 0.148441 cumulative IPC: 0.147995 (Simulation time: 2 hr 31 min 59 sec) 
Heartbeat CPU 0 instructions: 780000000 cycles: 3968960698 heartbeat IPC: 0.148211 cumulative IPC: 0.147998 (Simulation time: 2 hr 34 min 1 sec) 
Heartbeat CPU 0 instructions: 790000001 cycles: 4036156789 heartbeat IPC: 0.148818 cumulative IPC: 0.148012 (Simulation time: 2 hr 36 min 1 sec) 
Heartbeat CPU 0 instructions: 800000002 cycles: 4103444932 heartbeat IPC: 0.148615 cumulative IPC: 0.148022 (Simulation time: 2 hr 38 min 2 sec) 
Heartbeat CPU 0 instructions: 810000002 cycles: 4170524391 heartbeat IPC: 0.149077 cumulative IPC: 0.148039 (Simulation time: 2 hr 40 min 5 sec) 
Heartbeat CPU 0 instructions: 820000000 cycles: 4237676708 heartbeat IPC: 0.148915 cumulative IPC: 0.148053 (Simulation time: 2 hr 42 min 6 sec) 
Heartbeat CPU 0 instructions: 830000000 cycles: 4304563386 heartbeat IPC: 0.149507 cumulative IPC: 0.148076 (Simulation time: 2 hr 44 min 8 sec) 
Heartbeat CPU 0 instructions: 840000001 cycles: 4371748570 heartbeat IPC: 0.148842 cumulative IPC: 0.148088 (Simulation time: 2 hr 46 min 9 sec) 
Heartbeat CPU 0 instructions: 850000004 cycles: 4438534332 heartbeat IPC: 0.149733 cumulative IPC: 0.148113 (Simulation time: 2 hr 48 min 14 sec) 
Heartbeat CPU 0 instructions: 860000002 cycles: 4505544763 heartbeat IPC: 0.14923 cumulative IPC: 0.14813 (Simulation time: 2 hr 50 min 16 sec) 
Heartbeat CPU 0 instructions: 870000000 cycles: 4572191437 heartbeat IPC: 0.150045 cumulative IPC: 0.148158 (Simulation time: 2 hr 52 min 17 sec) 
Heartbeat CPU 0 instructions: 880000002 cycles: 4639136913 heartbeat IPC: 0.149375 cumulative IPC: 0.148176 (Simulation time: 2 hr 54 min 16 sec) 
Heartbeat CPU 0 instructions: 890000002 cycles: 4706607416 heartbeat IPC: 0.148213 cumulative IPC: 0.148177 (Simulation time: 2 hr 56 min 15 sec) 
Heartbeat CPU 0 instructions: 900000002 cycles: 4773508452 heartbeat IPC: 0.149475 cumulative IPC: 0.148195 (Simulation time: 2 hr 58 min 16 sec) 
Heartbeat CPU 0 instructions: 910000000 cycles: 4840832224 heartbeat IPC: 0.148536 cumulative IPC: 0.1482 (Simulation time: 3 hr 0 min 17 sec) 
Heartbeat CPU 0 instructions: 920000001 cycles: 4908314860 heartbeat IPC: 0.148186 cumulative IPC: 0.1482 (Simulation time: 3 hr 2 min 18 sec) 
Heartbeat CPU 0 instructions: 930000000 cycles: 4975841962 heartbeat IPC: 0.148089 cumulative IPC: 0.148198 (Simulation time: 3 hr 4 min 19 sec) 
Heartbeat CPU 0 instructions: 940000000 cycles: 5042952149 heartbeat IPC: 0.149009 cumulative IPC: 0.148209 (Simulation time: 3 hr 6 min 19 sec) 
Heartbeat CPU 0 instructions: 950000002 cycles: 5109724227 heartbeat IPC: 0.149763 cumulative IPC: 0.148229 (Simulation time: 3 hr 8 min 20 sec) 
Heartbeat CPU 0 instructions: 960000004 cycles: 5176360172 heartbeat IPC: 0.150069 cumulative IPC: 0.148253 (Simulation time: 3 hr 10 min 21 sec) 
Heartbeat CPU 0 instructions: 970000002 cycles: 5243166078 heartbeat IPC: 0.149687 cumulative IPC: 0.148272 (Simulation time: 3 hr 12 min 23 sec) 
Heartbeat CPU 0 instructions: 980000000 cycles: 5310109215 heartbeat IPC: 0.14938 cumulative IPC: 0.148286 (Simulation time: 3 hr 14 min 24 sec) 
Heartbeat CPU 0 instructions: 990000000 cycles: 5377140017 heartbeat IPC: 0.149185 cumulative IPC: 0.148297 (Simulation time: 3 hr 16 min 25 sec) 
Heartbeat CPU 0 instructions: 1000000000 cycles: 5444426178 heartbeat IPC: 0.148619 cumulative IPC: 0.148301 (Simulation time: 3 hr 18 min 27 sec) 
Heartbeat CPU 0 instructions: 1010000003 cycles: 5511082189 heartbeat IPC: 0.150024 cumulative IPC: 0.148322 (Simulation time: 3 hr 20 min 28 sec) 
Heartbeat CPU 0 instructions: 1020000001 cycles: 5577875405 heartbeat IPC: 0.149716 cumulative IPC: 0.148339 (Simulation time: 3 hr 22 min 30 sec) 
Heartbeat CPU 0 instructions: 1030000002 cycles: 5645689306 heartbeat IPC: 0.147462 cumulative IPC: 0.148328 (Simulation time: 3 hr 24 min 32 sec) 
Heartbeat CPU 0 instructions: 1040000004 cycles: 5712833724 heartbeat IPC: 0.148933 cumulative IPC: 0.148336 (Simulation time: 3 hr 26 min 33 sec) 
Heartbeat CPU 0 instructions: 1050000001 cycles: 5779946478 heartbeat IPC: 0.149003 cumulative IPC: 0.148343 (Simulation time: 3 hr 28 min 38 sec) 
Heartbeat CPU 0 instructions: 1060000000 cycles: 5847038235 heartbeat IPC: 0.14905 cumulative IPC: 0.148352 (Simulation time: 3 hr 30 min 43 sec) 
Heartbeat CPU 0 instructions: 1070000000 cycles: 5914022731 heartbeat IPC: 0.149288 cumulative IPC: 0.148362 (Simulation time: 3 hr 32 min 43 sec) 
Heartbeat CPU 0 instructions: 1080000002 cycles: 5980534375 heartbeat IPC: 0.15035 cumulative IPC: 0.148385 (Simulation time: 3 hr 34 min 44 sec) 
Heartbeat CPU 0 instructions: 1090000000 cycles: 6047498841 heartbeat IPC: 0.149333 cumulative IPC: 0.148395 (Simulation time: 3 hr 36 min 46 sec) 
Heartbeat CPU 0 instructions: 1100000001 cycles: 6114680410 heartbeat IPC: 0.14885 cumulative IPC: 0.1484 (Simulation time: 3 hr 38 min 46 sec) 
Heartbeat CPU 0 instructions: 1110000000 cycles: 6181883362 heartbeat IPC: 0.148803 cumulative IPC: 0.148405 (Simulation time: 3 hr 40 min 48 sec) 
Heartbeat CPU 0 instructions: 1120000003 cycles: 6248745489 heartbeat IPC: 0.149562 cumulative IPC: 0.148417 (Simulation time: 3 hr 42 min 48 sec) 
Heartbeat CPU 0 instructions: 1130000002 cycles: 6316406732 heartbeat IPC: 0.147795 cumulative IPC: 0.14841 (Simulation time: 3 hr 44 min 50 sec) 
Heartbeat CPU 0 instructions: 1140000000 cycles: 6383681799 heartbeat IPC: 0.148643 cumulative IPC: 0.148413 (Simulation time: 3 hr 46 min 53 sec) 
Heartbeat CPU 0 instructions: 1150000003 cycles: 6451242862 heartbeat IPC: 0.148014 cumulative IPC: 0.148409 (Simulation time: 3 hr 48 min 53 sec) 
Heartbeat CPU 0 instructions: 1160000000 cycles: 6518143650 heartbeat IPC: 0.149475 cumulative IPC: 0.14842 (Simulation time: 3 hr 50 min 53 sec) 
Heartbeat CPU 0 instructions: 1170000003 cycles: 6585861450 heartbeat IPC: 0.147672 cumulative IPC: 0.148412 (Simulation time: 3 hr 52 min 55 sec) 
Heartbeat CPU 0 instructions: 1180000000 cycles: 6653063578 heartbeat IPC: 0.148805 cumulative IPC: 0.148416 (Simulation time: 3 hr 55 min 0 sec) 
Heartbeat CPU 0 instructions: 1190000002 cycles: 6720064791 heartbeat IPC: 0.149251 cumulative IPC: 0.148424 (Simulation time: 3 hr 57 min 0 sec) 
*** Reached end of trace: tracer/pin/traces/xs-100hashxl-2.champsim.xz
Heartbeat CPU 0 instructions: 1200000001 cycles: 6787257704 heartbeat IPC: 0.148825 cumulative IPC: 0.148428 (Simulation time: 3 hr 59 min 2 sec) 
Finished CPU 0 instructions: 1000000000 cycles: 6737257657 cumulative IPC: 0.148428 (Simulation time: 3 hr 59 min 2 sec) 

ChampSim completed all CPUs

Region of Interest Statistics

CPU 0 cumulative IPC: 0.148428 instructions: 1000000000 cycles: 6737257657
cpu0_DTLB TOTAL     ACCESS:  114744424  HIT:  105821292  MISS:    8923132
cpu0_DTLB LOAD      ACCESS:   98329176  HIT:   89406044  MISS:    8923132
cpu0_DTLB RFO       ACCESS:   16415248  HIT:   16415248  MISS:          0
cpu0_DTLB PREFETCH  ACCESS:          0  HIT:          0  MISS:          0
cpu0_DTLB WRITEBACK ACCESS:          0  HIT:          0  MISS:          0
cpu0_DTLB TRANSLATION ACCESS:          0  HIT:          0  MISS:          0
cpu0_DTLB PREFETCH  REQUESTED:          0  ISSUED:          0  USEFUL:          0  USELESS:          0
cpu0_DTLB AVERAGE MISS LATENCY: 37.0236 cycles
cpu0_ITLB TOTAL     ACCESS:  110765184  HIT:  110765184  MISS:          0
cpu0_ITLB LOAD      ACCESS:  110765184  HIT:  110765184  MISS:          0
cpu0_ITLB RFO       ACCESS:          0  HIT:          0  MISS:          0
cpu0_ITLB PREFETCH  ACCESS:          0  HIT:          0  MISS:          0
cpu0_ITLB WRITEBACK ACCESS:          0  HIT:          0  MISS:          0
cpu0_ITLB TRANSLATION ACCESS:          0  HIT:          0  MISS:          0
cpu0_ITLB PREFETCH  REQUESTED:          0  ISSUED:          0  USEFUL:          0  USELESS:          0
cpu0_ITLB AVERAGE MISS LATENCY: -nan cycles
cpu0_L1I TOTAL     ACCESS:          1  HIT:          1  MISS:          0
cpu0_L1I LOAD      ACCESS:          1  HIT:          1  MISS:          0
cpu0_L1I RFO       ACCESS:          0  HIT:          0  MISS:          0
cpu0_L1I PREFETCH  ACCESS:          0  HIT:          0  MISS:          0
cpu0_L1I WRITEBACK ACCESS:          0  HIT:          0  MISS:          0
cpu0_L1I TRANSLATION ACCESS:          0  HIT:          0  MISS:          0
cpu0_L1I PREFETCH  REQUESTED:          0  ISSUED:          0  USEFUL:          0  USELESS:          0
cpu0_L1I AVERAGE MISS LATENCY: -nan cycles
cpu0_STLB TOTAL     ACCESS:    8923132  HIT:     186291  MISS:    8736841
cpu0_STLB LOAD      ACCESS:    8923132  HIT:     186291  MISS:    8736841
cpu0_STLB RFO       ACCESS:          0  HIT:          0  MISS:          0
cpu0_STLB PREFETCH  ACCESS:          0  HIT:          0  MISS:          0
cpu0_STLB WRITEBACK ACCESS:          0  HIT:          0  MISS:          0
cpu0_STLB TRANSLATION ACCESS:          0  HIT:          0  MISS:          0
cpu0_STLB PREFETCH  REQUESTED:          0  ISSUED:          0  USEFUL:          0  USELESS:          0
cpu0_STLB AVERAGE MISS LATENCY: 28.6176 cycles
cpu0_L1D TOTAL     ACCESS:  253544461  HIT:  176632789  MISS:   76911672
cpu0_L1D LOAD      ACCESS:  109020569  HIT:   68674104  MISS:   40346465
cpu0_L1D RFO       ACCESS:   37094438  HIT:   37093099  MISS:       1339
cpu0_L1D PREFETCH  ACCESS:   99855577  HIT:   67452323  MISS:   32403254
cpu0_L1D WRITEBACK ACCESS:          0  HIT:          0  MISS:          0
cpu0_L1D TRANSLATION ACCESS:    7573877  HIT:    3413263  MISS:    4160614
cpu0_L1D PREFETCH  REQUESTED:  111328479  ISSUED:  110981459  USEFUL:    9997460  USELESS:   24952167
cpu0_L1D AVERAGE MISS LATENCY: 420.798 cycles
cpu0_L2C TOTAL     ACCESS:   79501853  HIT:    2515271  MISS:   76986582
cpu0_L2C LOAD      ACCESS:   37801018  HIT:     121859  MISS:   37679159
cpu0_L2C RFO       ACCESS:        400  HIT:        400  MISS:          0
cpu0_L2C PREFETCH  ACCESS:   37475768  HIT:     578265  MISS:   36897503
cpu0_L2C WRITEBACK ACCESS:      64053  HIT:      62689  MISS:       1364
cpu0_L2C TRANSLATION ACCESS:    4160614  HIT:    1752058  MISS:    2408556
cpu0_L2C PREFETCH  REQUESTED:    3673353  ISSUED:    3515723  USEFUL:        465  USELESS:    2525220
cpu0_L2C AVERAGE MISS LATENCY: 442.452 cycles
LLC TOTAL     ACCESS:   77840829  HIT:    3632069  MISS:   74208760
LLC LOAD      ACCESS:   37679159  HIT:     229164  MISS:   37449995
LLC RFO       ACCESS:          0  HIT:          0  MISS:          0
LLC PREFETCH  ACCESS:   37718895  HIT:     960145  MISS:   36758750
LLC WRITEBACK ACCESS:      34219  HIT:      34219  MISS:          0
LLC TRANSLATION ACCESS:    2408556  HIT:    2408541  MISS:         15
LLC PREFETCH  REQUESTED:          0  ISSUED:          0  USEFUL:          0  USELESS:          0
LLC AVERAGE MISS LATENCY: 439.885 cycles

DRAM Statistics
 CHANNEL 0
 RQ ROW_BUFFER_HIT:   18282955  ROW_BUFFER_MISS:   55925806
 DBUS AVG_CONGESTED_CYCLE:    3.90696
 WQ ROW_BUFFER_HIT:         12  ROW_BUFFER_MISS:          0  FULL:          0


CPU 0 Branch Prediction Accuracy: 86.1731% MPKI: 19.1276 Average ROB Occupancy at Mispredict: 33.9673
Branch type MPKI
BRANCH_DIRECT_JUMP: 1e-06
BRANCH_INDIRECT: 0
BRANCH_CONDITIONAL: 19.1276
BRANCH_DIRECT_CALL: 0
BRANCH_INDIRECT_CALL: 0
BRANCH_RETURN: 0

