
*** ChampSim Multicore Out-of-Order Simulator ***

Warmup Instructions: 1000000
Simulation Instructions: 1000000000
Number of CPUs: 1
Off-chip DRAM Size: 4 GiB Channels: 1 Width: 64-bit Data Rate: 3200 MT/s

VirtualMemory physical capacity: 8588881920 num_ppages: 2096895
VirtualMemory page size: 4096 log2_page_size: 12

CPU 0 runs tracer/pin/traces/spec2k17/657.xz_s-3167B.champsimtrace.xz
Basic BTB sets: 1024 ways: 8 indirect buffer size: 4096 RAS size: 64
cpu0_L1D next line prefetcher
cpu0_L2C IP-based stride prefetcher
WARNING: The extended signature CACHE::prefetch_line(ip, base_addr, pf_addr, fill_this_level, prefetch_metadata) is deprecated.
WARNING: Use CACHE::prefetch_line(pf_addr, fill_this_level, prefetch_metadata) instead.

Warmup complete CPU 0 instructions: 1000002 cycles: 250248 (Simulation time: 0 hr 0 min 3 sec) 

Heartbeat CPU 0 instructions: 10000002 cycles: 8582078 heartbeat IPC: 1.16522 cumulative IPC: 1.08019 (Simulation time: 0 hr 0 min 49 sec) 
Heartbeat CPU 0 instructions: 20000000 cycles: 15393364 heartbeat IPC: 1.46815 cumulative IPC: 1.2547 (Simulation time: 0 hr 1 min 34 sec) 
Heartbeat CPU 0 instructions: 30000000 cycles: 23530901 heartbeat IPC: 1.22887 cumulative IPC: 1.24567 (Simulation time: 0 hr 2 min 21 sec) 
Heartbeat CPU 0 instructions: 40000001 cycles: 32696708 heartbeat IPC: 1.09101 cumulative IPC: 1.20198 (Simulation time: 0 hr 3 min 9 sec) 
Heartbeat CPU 0 instructions: 50000002 cycles: 41554914 heartbeat IPC: 1.1289 cumulative IPC: 1.18631 (Simulation time: 0 hr 3 min 56 sec) 
Heartbeat CPU 0 instructions: 60000003 cycles: 49318651 heartbeat IPC: 1.28804 cumulative IPC: 1.2024 (Simulation time: 0 hr 4 min 38 sec) 
Heartbeat CPU 0 instructions: 70000000 cycles: 56428773 heartbeat IPC: 1.40645 cumulative IPC: 1.22823 (Simulation time: 0 hr 5 min 19 sec) 
Heartbeat CPU 0 instructions: 80000002 cycles: 63880042 heartbeat IPC: 1.34205 cumulative IPC: 1.24156 (Simulation time: 0 hr 6 min 1 sec) 
Heartbeat CPU 0 instructions: 90000001 cycles: 70500295 heartbeat IPC: 1.51052 cumulative IPC: 1.2669 (Simulation time: 0 hr 6 min 43 sec) 
Heartbeat CPU 0 instructions: 100000001 cycles: 77900222 heartbeat IPC: 1.35136 cumulative IPC: 1.27495 (Simulation time: 0 hr 7 min 26 sec) 
Heartbeat CPU 0 instructions: 110000001 cycles: 85171449 heartbeat IPC: 1.37528 cumulative IPC: 1.28354 (Simulation time: 0 hr 8 min 10 sec) 
Heartbeat CPU 0 instructions: 120000002 cycles: 91610244 heartbeat IPC: 1.55309 cumulative IPC: 1.30254 (Simulation time: 0 hr 8 min 51 sec) 
Heartbeat CPU 0 instructions: 130000003 cycles: 97116035 heartbeat IPC: 1.81627 cumulative IPC: 1.33174 (Simulation time: 0 hr 9 min 31 sec) 
Heartbeat CPU 0 instructions: 140000003 cycles: 103768982 heartbeat IPC: 1.50309 cumulative IPC: 1.34275 (Simulation time: 0 hr 10 min 12 sec) 
Heartbeat CPU 0 instructions: 150000000 cycles: 109421821 heartbeat IPC: 1.76902 cumulative IPC: 1.36482 (Simulation time: 0 hr 10 min 52 sec) 
Heartbeat CPU 0 instructions: 160000002 cycles: 114794865 heartbeat IPC: 1.86114 cumulative IPC: 1.38811 (Simulation time: 0 hr 11 min 30 sec) 
Heartbeat CPU 0 instructions: 170000001 cycles: 122145207 heartbeat IPC: 1.36048 cumulative IPC: 1.38644 (Simulation time: 0 hr 12 min 11 sec) 
Heartbeat CPU 0 instructions: 180000003 cycles: 131530176 heartbeat IPC: 1.06553 cumulative IPC: 1.3635 (Simulation time: 0 hr 12 min 56 sec) 
Heartbeat CPU 0 instructions: 190000004 cycles: 142656661 heartbeat IPC: 0.898757 cumulative IPC: 1.32719 (Simulation time: 0 hr 13 min 44 sec) 
Heartbeat CPU 0 instructions: 200000000 cycles: 152711312 heartbeat IPC: 0.994564 cumulative IPC: 1.30525 (Simulation time: 0 hr 14 min 29 sec) 
Heartbeat CPU 0 instructions: 210000000 cycles: 162461177 heartbeat IPC: 1.02566 cumulative IPC: 1.28845 (Simulation time: 0 hr 15 min 12 sec) 
Heartbeat CPU 0 instructions: 220000001 cycles: 171000150 heartbeat IPC: 1.1711 cumulative IPC: 1.28258 (Simulation time: 0 hr 15 min 55 sec) 
Heartbeat CPU 0 instructions: 230000001 cycles: 178629493 heartbeat IPC: 1.31073 cumulative IPC: 1.28378 (Simulation time: 0 hr 16 min 36 sec) 
Heartbeat CPU 0 instructions: 240000002 cycles: 186223592 heartbeat IPC: 1.31681 cumulative IPC: 1.28513 (Simulation time: 0 hr 17 min 16 sec) 
Heartbeat CPU 0 instructions: 250000000 cycles: 193120455 heartbeat IPC: 1.44993 cumulative IPC: 1.29102 (Simulation time: 0 hr 17 min 54 sec) 
Heartbeat CPU 0 instructions: 260000000 cycles: 199004514 heartbeat IPC: 1.69951 cumulative IPC: 1.30312 (Simulation time: 0 hr 18 min 29 sec) 
Heartbeat CPU 0 instructions: 270000000 cycles: 204574713 heartbeat IPC: 1.79527 cumulative IPC: 1.31653 (Simulation time: 0 hr 19 min 5 sec) 
Heartbeat CPU 0 instructions: 280000000 cycles: 214026153 heartbeat IPC: 1.05804 cumulative IPC: 1.3051 (Simulation time: 0 hr 19 min 47 sec) 
Heartbeat CPU 0 instructions: 290000001 cycles: 221703771 heartbeat IPC: 1.30249 cumulative IPC: 1.30501 (Simulation time: 0 hr 20 min 29 sec) 
Heartbeat CPU 0 instructions: 300000002 cycles: 228179912 heartbeat IPC: 1.54413 cumulative IPC: 1.31181 (Simulation time: 0 hr 21 min 5 sec) 
Heartbeat CPU 0 instructions: 310000001 cycles: 234689571 heartbeat IPC: 1.53618 cumulative IPC: 1.31804 (Simulation time: 0 hr 21 min 43 sec) 
Heartbeat CPU 0 instructions: 320000004 cycles: 242432939 heartbeat IPC: 1.29143 cumulative IPC: 1.31719 (Simulation time: 0 hr 22 min 23 sec) 
Heartbeat CPU 0 instructions: 330000004 cycles: 248576507 heartbeat IPC: 1.62772 cumulative IPC: 1.32487 (Simulation time: 0 hr 23 min 0 sec) 
Heartbeat CPU 0 instructions: 340000001 cycles: 256415583 heartbeat IPC: 1.27566 cumulative IPC: 1.32336 (Simulation time: 0 hr 23 min 38 sec) 
Heartbeat CPU 0 instructions: 350000002 cycles: 264908695 heartbeat IPC: 1.17742 cumulative IPC: 1.31868 (Simulation time: 0 hr 24 min 21 sec) 
Heartbeat CPU 0 instructions: 360000002 cycles: 273523012 heartbeat IPC: 1.16086 cumulative IPC: 1.31371 (Simulation time: 0 hr 25 min 1 sec) 
Heartbeat CPU 0 instructions: 370000004 cycles: 280993750 heartbeat IPC: 1.33856 cumulative IPC: 1.31437 (Simulation time: 0 hr 25 min 40 sec) 
Heartbeat CPU 0 instructions: 380000003 cycles: 287885678 heartbeat IPC: 1.45097 cumulative IPC: 1.31764 (Simulation time: 0 hr 26 min 18 sec) 
Heartbeat CPU 0 instructions: 390000000 cycles: 296698422 heartbeat IPC: 1.13472 cumulative IPC: 1.3122 (Simulation time: 0 hr 26 min 58 sec) 
Heartbeat CPU 0 instructions: 400000001 cycles: 304988460 heartbeat IPC: 1.20627 cumulative IPC: 1.30932 (Simulation time: 0 hr 27 min 36 sec) 
Heartbeat CPU 0 instructions: 410000004 cycles: 313674365 heartbeat IPC: 1.15129 cumulative IPC: 1.30494 (Simulation time: 0 hr 28 min 17 sec) 
Heartbeat CPU 0 instructions: 420000002 cycles: 322656311 heartbeat IPC: 1.11334 cumulative IPC: 1.2996 (Simulation time: 0 hr 28 min 57 sec) 
Heartbeat CPU 0 instructions: 430000000 cycles: 330621199 heartbeat IPC: 1.25551 cumulative IPC: 1.29854 (Simulation time: 0 hr 29 min 35 sec) 
Heartbeat CPU 0 instructions: 440000004 cycles: 338546498 heartbeat IPC: 1.26178 cumulative IPC: 1.29768 (Simulation time: 0 hr 30 min 15 sec) 
Heartbeat CPU 0 instructions: 450000003 cycles: 346360383 heartbeat IPC: 1.27977 cumulative IPC: 1.29727 (Simulation time: 0 hr 30 min 54 sec) 
Heartbeat CPU 0 instructions: 460000000 cycles: 354035241 heartbeat IPC: 1.30296 cumulative IPC: 1.2974 (Simulation time: 0 hr 31 min 34 sec) 
Heartbeat CPU 0 instructions: 470000000 cycles: 361836621 heartbeat IPC: 1.28182 cumulative IPC: 1.29706 (Simulation time: 0 hr 32 min 14 sec) 
Heartbeat CPU 0 instructions: 480000003 cycles: 368675409 heartbeat IPC: 1.46225 cumulative IPC: 1.30013 (Simulation time: 0 hr 32 min 53 sec) 
Heartbeat CPU 0 instructions: 490000003 cycles: 375241897 heartbeat IPC: 1.52288 cumulative IPC: 1.30403 (Simulation time: 0 hr 33 min 30 sec) 
Heartbeat CPU 0 instructions: 500000002 cycles: 382522976 heartbeat IPC: 1.37342 cumulative IPC: 1.30535 (Simulation time: 0 hr 34 min 9 sec) 
Heartbeat CPU 0 instructions: 510000000 cycles: 403402845 heartbeat IPC: 0.47893 cumulative IPC: 1.26255 (Simulation time: 0 hr 35 min 51 sec) 
Heartbeat CPU 0 instructions: 520000002 cycles: 411268108 heartbeat IPC: 1.27141 cumulative IPC: 1.26272 (Simulation time: 0 hr 36 min 31 sec) 
Heartbeat CPU 0 instructions: 530000000 cycles: 418417009 heartbeat IPC: 1.39882 cumulative IPC: 1.26505 (Simulation time: 0 hr 37 min 10 sec) 
Heartbeat CPU 0 instructions: 540000002 cycles: 425385580 heartbeat IPC: 1.43501 cumulative IPC: 1.26783 (Simulation time: 0 hr 37 min 48 sec) 
Heartbeat CPU 0 instructions: 550000001 cycles: 435549716 heartbeat IPC: 0.983851 cumulative IPC: 1.2612 (Simulation time: 0 hr 38 min 33 sec) 
Heartbeat CPU 0 instructions: 560000003 cycles: 442971007 heartbeat IPC: 1.34747 cumulative IPC: 1.26265 (Simulation time: 0 hr 39 min 13 sec) 
Heartbeat CPU 0 instructions: 570000004 cycles: 450406460 heartbeat IPC: 1.34491 cumulative IPC: 1.26401 (Simulation time: 0 hr 39 min 51 sec) 
Heartbeat CPU 0 instructions: 580000004 cycles: 457799785 heartbeat IPC: 1.35257 cumulative IPC: 1.26544 (Simulation time: 0 hr 40 min 29 sec) 
Heartbeat CPU 0 instructions: 590000000 cycles: 465360135 heartbeat IPC: 1.32269 cumulative IPC: 1.26637 (Simulation time: 0 hr 41 min 8 sec) 
Heartbeat CPU 0 instructions: 600000000 cycles: 473251390 heartbeat IPC: 1.26723 cumulative IPC: 1.26638 (Simulation time: 0 hr 41 min 48 sec) 
Heartbeat CPU 0 instructions: 610000004 cycles: 481120965 heartbeat IPC: 1.27072 cumulative IPC: 1.26645 (Simulation time: 0 hr 42 min 28 sec) 
Heartbeat CPU 0 instructions: 620000001 cycles: 488421495 heartbeat IPC: 1.36976 cumulative IPC: 1.268 (Simulation time: 0 hr 43 min 5 sec) 
Heartbeat CPU 0 instructions: 630000001 cycles: 496152146 heartbeat IPC: 1.29355 cumulative IPC: 1.2684 (Simulation time: 0 hr 43 min 43 sec) 
Heartbeat CPU 0 instructions: 640000003 cycles: 503838943 heartbeat IPC: 1.30093 cumulative IPC: 1.26889 (Simulation time: 0 hr 44 min 20 sec) 
Heartbeat CPU 0 instructions: 650000001 cycles: 510377965 heartbeat IPC: 1.52928 cumulative IPC: 1.27223 (Simulation time: 0 hr 44 min 54 sec) 
Heartbeat CPU 0 instructions: 660000003 cycles: 518123177 heartbeat IPC: 1.29112 cumulative IPC: 1.27251 (Simulation time: 0 hr 45 min 28 sec) 
Heartbeat CPU 0 instructions: 670000004 cycles: 525853680 heartbeat IPC: 1.29358 cumulative IPC: 1.27282 (Simulation time: 0 hr 46 min 4 sec) 
Heartbeat CPU 0 instructions: 680000002 cycles: 532869851 heartbeat IPC: 1.42528 cumulative IPC: 1.27483 (Simulation time: 0 hr 46 min 38 sec) 
Heartbeat CPU 0 instructions: 690000004 cycles: 541389038 heartbeat IPC: 1.17382 cumulative IPC: 1.27324 (Simulation time: 0 hr 47 min 14 sec) 
Heartbeat CPU 0 instructions: 700000000 cycles: 548854150 heartbeat IPC: 1.33956 cumulative IPC: 1.27414 (Simulation time: 0 hr 47 min 48 sec) 
Heartbeat CPU 0 instructions: 710000000 cycles: 556712790 heartbeat IPC: 1.27248 cumulative IPC: 1.27412 (Simulation time: 0 hr 48 min 24 sec) 
Heartbeat CPU 0 instructions: 720000002 cycles: 564443267 heartbeat IPC: 1.29358 cumulative IPC: 1.27439 (Simulation time: 0 hr 48 min 59 sec) 
Heartbeat CPU 0 instructions: 730000004 cycles: 571547577 heartbeat IPC: 1.4076 cumulative IPC: 1.27604 (Simulation time: 0 hr 49 min 33 sec) 
Heartbeat CPU 0 instructions: 740000002 cycles: 579134714 heartbeat IPC: 1.31802 cumulative IPC: 1.27659 (Simulation time: 0 hr 50 min 8 sec) 
Heartbeat CPU 0 instructions: 750000003 cycles: 585061518 heartbeat IPC: 1.68725 cumulative IPC: 1.28076 (Simulation time: 0 hr 50 min 40 sec) 
Heartbeat CPU 0 instructions: 760000000 cycles: 590427515 heartbeat IPC: 1.86359 cumulative IPC: 1.28605 (Simulation time: 0 hr 51 min 12 sec) 
Heartbeat CPU 0 instructions: 770000003 cycles: 595878867 heartbeat IPC: 1.83441 cumulative IPC: 1.29107 (Simulation time: 0 hr 51 min 43 sec) 
Heartbeat CPU 0 instructions: 780000004 cycles: 601159729 heartbeat IPC: 1.89363 cumulative IPC: 1.29637 (Simulation time: 0 hr 52 min 13 sec) 
Heartbeat CPU 0 instructions: 790000000 cycles: 606624777 heartbeat IPC: 1.82981 cumulative IPC: 1.30118 (Simulation time: 0 hr 52 min 44 sec) 
Heartbeat CPU 0 instructions: 800000002 cycles: 612068722 heartbeat IPC: 1.8369 cumulative IPC: 1.30594 (Simulation time: 0 hr 53 min 16 sec) 
Heartbeat CPU 0 instructions: 810000002 cycles: 617555748 heartbeat IPC: 1.82248 cumulative IPC: 1.31053 (Simulation time: 0 hr 53 min 47 sec) 
Heartbeat CPU 0 instructions: 820000000 cycles: 622943629 heartbeat IPC: 1.85602 cumulative IPC: 1.31525 (Simulation time: 0 hr 54 min 19 sec) 
Heartbeat CPU 0 instructions: 830000001 cycles: 628638920 heartbeat IPC: 1.75584 cumulative IPC: 1.31925 (Simulation time: 0 hr 54 min 51 sec) 
Heartbeat CPU 0 instructions: 840000002 cycles: 633879764 heartbeat IPC: 1.90809 cumulative IPC: 1.32412 (Simulation time: 0 hr 55 min 21 sec) 
Heartbeat CPU 0 instructions: 850000003 cycles: 639508270 heartbeat IPC: 1.77667 cumulative IPC: 1.3281 (Simulation time: 0 hr 55 min 52 sec) 
Heartbeat CPU 0 instructions: 860000004 cycles: 644953181 heartbeat IPC: 1.83658 cumulative IPC: 1.3324 (Simulation time: 0 hr 56 min 23 sec) 
Heartbeat CPU 0 instructions: 870000000 cycles: 650513285 heartbeat IPC: 1.79853 cumulative IPC: 1.33638 (Simulation time: 0 hr 56 min 54 sec) 
Heartbeat CPU 0 instructions: 880000000 cycles: 655890181 heartbeat IPC: 1.85981 cumulative IPC: 1.34067 (Simulation time: 0 hr 57 min 24 sec) 
Heartbeat CPU 0 instructions: 890000004 cycles: 661229933 heartbeat IPC: 1.87275 cumulative IPC: 1.34497 (Simulation time: 0 hr 57 min 55 sec) 
Heartbeat CPU 0 instructions: 900000000 cycles: 666694391 heartbeat IPC: 1.83001 cumulative IPC: 1.34895 (Simulation time: 0 hr 58 min 26 sec) 
Heartbeat CPU 0 instructions: 910000004 cycles: 672112438 heartbeat IPC: 1.84568 cumulative IPC: 1.35296 (Simulation time: 0 hr 58 min 57 sec) 
Heartbeat CPU 0 instructions: 920000001 cycles: 677613163 heartbeat IPC: 1.81794 cumulative IPC: 1.35673 (Simulation time: 0 hr 59 min 28 sec) 
Heartbeat CPU 0 instructions: 930000001 cycles: 684953848 heartbeat IPC: 1.36227 cumulative IPC: 1.35679 (Simulation time: 1 hr 0 min 2 sec) 
Heartbeat CPU 0 instructions: 940000001 cycles: 693117196 heartbeat IPC: 1.22499 cumulative IPC: 1.35524 (Simulation time: 1 hr 0 min 39 sec) 
Heartbeat CPU 0 instructions: 950000000 cycles: 702186108 heartbeat IPC: 1.10267 cumulative IPC: 1.35198 (Simulation time: 1 hr 1 min 15 sec) 
Heartbeat CPU 0 instructions: 960000001 cycles: 708161426 heartbeat IPC: 1.67355 cumulative IPC: 1.35469 (Simulation time: 1 hr 1 min 46 sec) 
Heartbeat CPU 0 instructions: 970000002 cycles: 715215043 heartbeat IPC: 1.41771 cumulative IPC: 1.35531 (Simulation time: 1 hr 2 min 18 sec) 
Heartbeat CPU 0 instructions: 980000001 cycles: 725206828 heartbeat IPC: 1.00082 cumulative IPC: 1.35043 (Simulation time: 1 hr 2 min 54 sec) 
Heartbeat CPU 0 instructions: 990000000 cycles: 735562405 heartbeat IPC: 0.965663 cumulative IPC: 1.34501 (Simulation time: 1 hr 3 min 31 sec) 
Heartbeat CPU 0 instructions: 1000000000 cycles: 743800032 heartbeat IPC: 1.21394 cumulative IPC: 1.34355 (Simulation time: 1 hr 4 min 6 sec) 
Finished CPU 0 instructions: 1000000000 cycles: 744230880 cumulative IPC: 1.34367 (Simulation time: 1 hr 4 min 9 sec) 

ChampSim completed all CPUs

Region of Interest Statistics

CPU 0 cumulative IPC: 1.34367 instructions: 1000000000 cycles: 744230880
cpu0_DTLB TOTAL     ACCESS:  177259766  HIT:  172371855  MISS:    4887911
cpu0_DTLB LOAD      ACCESS:  138160020  HIT:  135881353  MISS:    2278667
cpu0_DTLB RFO       ACCESS:   39099746  HIT:   36490502  MISS:    2609244
cpu0_DTLB PREFETCH  ACCESS:          0  HIT:          0  MISS:          0
cpu0_DTLB WRITEBACK ACCESS:          0  HIT:          0  MISS:          0
cpu0_DTLB TRANSLATION ACCESS:          0  HIT:          0  MISS:          0
cpu0_DTLB PREFETCH  REQUESTED:          0  ISSUED:          0  USEFUL:          0  USELESS:          0
cpu0_DTLB AVERAGE MISS LATENCY: 10.6713 cycles
cpu0_ITLB TOTAL     ACCESS:   82683670  HIT:   82683658  MISS:         12
cpu0_ITLB LOAD      ACCESS:   82683670  HIT:   82683658  MISS:         12
cpu0_ITLB RFO       ACCESS:          0  HIT:          0  MISS:          0
cpu0_ITLB PREFETCH  ACCESS:          0  HIT:          0  MISS:          0
cpu0_ITLB WRITEBACK ACCESS:          0  HIT:          0  MISS:          0
cpu0_ITLB TRANSLATION ACCESS:          0  HIT:          0  MISS:          0
cpu0_ITLB PREFETCH  REQUESTED:          0  ISSUED:          0  USEFUL:          0  USELESS:          0
cpu0_ITLB AVERAGE MISS LATENCY: 188.5 cycles
cpu0_L1I TOTAL     ACCESS:   19127594  HIT:   19126763  MISS:        831
cpu0_L1I LOAD      ACCESS:   19127594  HIT:   19126763  MISS:        831
cpu0_L1I RFO       ACCESS:          0  HIT:          0  MISS:          0
cpu0_L1I PREFETCH  ACCESS:          0  HIT:          0  MISS:          0
cpu0_L1I WRITEBACK ACCESS:          0  HIT:          0  MISS:          0
cpu0_L1I TRANSLATION ACCESS:          0  HIT:          0  MISS:          0
cpu0_L1I PREFETCH  REQUESTED:          0  ISSUED:          0  USEFUL:          0  USELESS:          0
cpu0_L1I AVERAGE MISS LATENCY: 134.529 cycles
cpu0_STLB TOTAL     ACCESS:    4887923  HIT:    4458512  MISS:     429411
cpu0_STLB LOAD      ACCESS:    2278679  HIT:    1932498  MISS:     346181
cpu0_STLB RFO       ACCESS:    2609244  HIT:    2526014  MISS:      83230
cpu0_STLB PREFETCH  ACCESS:          0  HIT:          0  MISS:          0
cpu0_STLB WRITEBACK ACCESS:          0  HIT:          0  MISS:          0
cpu0_STLB TRANSLATION ACCESS:          0  HIT:          0  MISS:          0
cpu0_STLB PREFETCH  REQUESTED:          0  ISSUED:          0  USEFUL:          0  USELESS:          0
cpu0_STLB AVERAGE MISS LATENCY: 18.9129 cycles
cpu0_L1D TOTAL     ACCESS:  333368054  HIT:  321943362  MISS:   11424692
cpu0_L1D LOAD      ACCESS:  135828404  HIT:  131337566  MISS:    4490838
cpu0_L1D RFO       ACCESS:   63720678  HIT:   61724704  MISS:    1995974
cpu0_L1D PREFETCH  ACCESS:  133390846  HIT:  128498922  MISS:    4891924
cpu0_L1D WRITEBACK ACCESS:          0  HIT:          0  MISS:          0
cpu0_L1D TRANSLATION ACCESS:     428126  HIT:     382170  MISS:      45956
cpu0_L1D PREFETCH  REQUESTED:  136006103  ISSUED:  134389624  USEFUL:    2611394  USELESS:    2342356
cpu0_L1D AVERAGE MISS LATENCY: 75.7028 cycles
cpu0_L2C TOTAL     ACCESS:   17526703  HIT:   13723516  MISS:    3803187
cpu0_L2C LOAD      ACCESS:    4436092  HIT:    2923042  MISS:    1513050
cpu0_L2C RFO       ACCESS:    1987856  HIT:    1459550  MISS:     528306
cpu0_L2C PREFETCH  ACCESS:    5535595  HIT:    3781267  MISS:    1754328
cpu0_L2C WRITEBACK ACCESS:    5521204  HIT:    5514997  MISS:       6207
cpu0_L2C TRANSLATION ACCESS:      45956  HIT:      44660  MISS:       1296
cpu0_L2C PREFETCH  REQUESTED:     772196  ISSUED:     596251  USEFUL:      27059  USELESS:      29232
cpu0_L2C AVERAGE MISS LATENCY: 195.151 cycles
LLC TOTAL     ACCESS:    5482593  HIT:    3785598  MISS:    1696995
LLC LOAD      ACCESS:    1513014  HIT:     887107  MISS:     625907
LLC RFO       ACCESS:     528294  HIT:     160140  MISS:     368154
LLC PREFETCH  ACCESS:    1755667  HIT:    1067985  MISS:     687682
LLC WRITEBACK ACCESS:    1684322  HIT:    1669130  MISS:      15192
LLC TRANSLATION ACCESS:       1296  HIT:       1236  MISS:         60
LLC PREFETCH  REQUESTED:          0  ISSUED:          0  USEFUL:          0  USELESS:          0
LLC AVERAGE MISS LATENCY: 377.753 cycles

DRAM Statistics
 CHANNEL 0
 RQ ROW_BUFFER_HIT:      90062  ROW_BUFFER_MISS:    1591634
 DBUS AVG_CONGESTED_CYCLE:    3.79464
 WQ ROW_BUFFER_HIT:     121826  ROW_BUFFER_MISS:     729295  FULL:          0


CPU 0 Branch Prediction Accuracy: 91.8231% MPKI: 12.3118 Average ROB Occupancy at Mispredict: 41.7442
Branch type MPKI
BRANCH_DIRECT_JUMP: 2.7e-05
BRANCH_INDIRECT: 0.754334
BRANCH_CONDITIONAL: 11.5553
BRANCH_DIRECT_CALL: 1.6e-05
BRANCH_INDIRECT_CALL: 0.00218
BRANCH_RETURN: 2.6e-05

