
*** ChampSim Multicore Out-of-Order Simulator ***

Warmup Instructions: 1000000
Simulation Instructions: 1000000000
Number of CPUs: 1
Off-chip DRAM Size: 4 GiB Channels: 1 Width: 64-bit Data Rate: 3200 MT/s

VirtualMemory physical capacity: 8588881920 num_ppages: 2096895
VirtualMemory page size: 4096 log2_page_size: 12

CPU 0 runs tracer/pin/traces/spec2k6/403.gcc-17B.champsimtrace.xz
Basic BTB sets: 1024 ways: 8 indirect buffer size: 4096 RAS size: 64
cpu0_L1D next line prefetcher
cpu0_L2C IP-based stride prefetcher
WARNING: The extended signature CACHE::prefetch_line(ip, base_addr, pf_addr, fill_this_level, prefetch_metadata) is deprecated.
WARNING: Use CACHE::prefetch_line(pf_addr, fill_this_level, prefetch_metadata) instead.

Warmup complete CPU 0 instructions: 1000003 cycles: 250212 (Simulation time: 0 hr 0 min 3 sec) 

Heartbeat CPU 0 instructions: 10000004 cycles: 22324000 heartbeat IPC: 0.447949 cumulative IPC: 0.407723 (Simulation time: 0 hr 0 min 59 sec) 
Heartbeat CPU 0 instructions: 20000002 cycles: 60204724 heartbeat IPC: 0.263986 cumulative IPC: 0.316907 (Simulation time: 0 hr 2 min 24 sec) 
Heartbeat CPU 0 instructions: 30000004 cycles: 109867859 heartbeat IPC: 0.201357 cumulative IPC: 0.264556 (Simulation time: 0 hr 5 min 53 sec) 
Heartbeat CPU 0 instructions: 40000003 cycles: 186202172 heartbeat IPC: 0.131003 cumulative IPC: 0.209732 (Simulation time: 0 hr 12 min 47 sec) 
Heartbeat CPU 0 instructions: 50000002 cycles: 207949257 heartbeat IPC: 0.459832 cumulative IPC: 0.235918 (Simulation time: 0 hr 14 min 9 sec) 
Heartbeat CPU 0 instructions: 60000000 cycles: 229007954 heartbeat IPC: 0.474863 cumulative IPC: 0.257915 (Simulation time: 0 hr 15 min 30 sec) 
Heartbeat CPU 0 instructions: 70000001 cycles: 248592279 heartbeat IPC: 0.510612 cumulative IPC: 0.277843 (Simulation time: 0 hr 16 min 55 sec) 
Heartbeat CPU 0 instructions: 80000001 cycles: 278878568 heartbeat IPC: 0.330182 cumulative IPC: 0.283532 (Simulation time: 0 hr 18 min 34 sec) 
Heartbeat CPU 0 instructions: 90000000 cycles: 307780318 heartbeat IPC: 0.346 cumulative IPC: 0.289403 (Simulation time: 0 hr 20 min 7 sec) 
Heartbeat CPU 0 instructions: 100000002 cycles: 349107741 heartbeat IPC: 0.24197 cumulative IPC: 0.283783 (Simulation time: 0 hr 23 min 9 sec) 
Heartbeat CPU 0 instructions: 110000004 cycles: 391981973 heartbeat IPC: 0.23324 cumulative IPC: 0.278252 (Simulation time: 0 hr 27 min 9 sec) 
Heartbeat CPU 0 instructions: 120000001 cycles: 405176710 heartbeat IPC: 0.757878 cumulative IPC: 0.29388 (Simulation time: 0 hr 28 min 21 sec) 
Heartbeat CPU 0 instructions: 130000003 cycles: 417564662 heartbeat IPC: 0.807236 cumulative IPC: 0.309119 (Simulation time: 0 hr 29 min 35 sec) 
Heartbeat CPU 0 instructions: 140000000 cycles: 430336207 heartbeat IPC: 0.78299 cumulative IPC: 0.323191 (Simulation time: 0 hr 30 min 47 sec) 
Heartbeat CPU 0 instructions: 150000003 cycles: 443021649 heartbeat IPC: 0.788305 cumulative IPC: 0.336517 (Simulation time: 0 hr 32 min 1 sec) 
Heartbeat CPU 0 instructions: 160000001 cycles: 456346760 heartbeat IPC: 0.750463 cumulative IPC: 0.34861 (Simulation time: 0 hr 33 min 18 sec) 
Heartbeat CPU 0 instructions: 170000003 cycles: 468919736 heartbeat IPC: 0.795357 cumulative IPC: 0.360595 (Simulation time: 0 hr 34 min 27 sec) 
Heartbeat CPU 0 instructions: 180000003 cycles: 481536592 heartbeat IPC: 0.79259 cumulative IPC: 0.37192 (Simulation time: 0 hr 35 min 40 sec) 
Heartbeat CPU 0 instructions: 190000002 cycles: 494136844 heartbeat IPC: 0.793635 cumulative IPC: 0.382679 (Simulation time: 0 hr 36 min 52 sec) 
Heartbeat CPU 0 instructions: 200000000 cycles: 507542860 heartbeat IPC: 0.745934 cumulative IPC: 0.392278 (Simulation time: 0 hr 38 min 9 sec) 
Heartbeat CPU 0 instructions: 210000000 cycles: 519963799 heartbeat IPC: 0.805092 cumulative IPC: 0.402145 (Simulation time: 0 hr 39 min 16 sec) 
Heartbeat CPU 0 instructions: 220000004 cycles: 532541080 heartbeat IPC: 0.795085 cumulative IPC: 0.411429 (Simulation time: 0 hr 40 min 24 sec) 
Heartbeat CPU 0 instructions: 230000001 cycles: 545908494 heartbeat IPC: 0.748088 cumulative IPC: 0.419677 (Simulation time: 0 hr 41 min 35 sec) 
Heartbeat CPU 0 instructions: 240000002 cycles: 558893613 heartbeat IPC: 0.770112 cumulative IPC: 0.427822 (Simulation time: 0 hr 42 min 46 sec) 
Heartbeat CPU 0 instructions: 250000000 cycles: 571647990 heartbeat IPC: 0.784044 cumulative IPC: 0.435773 (Simulation time: 0 hr 43 min 55 sec) 
Heartbeat CPU 0 instructions: 260000001 cycles: 584189891 heartbeat IPC: 0.797327 cumulative IPC: 0.443539 (Simulation time: 0 hr 45 min 7 sec) 
Heartbeat CPU 0 instructions: 270000002 cycles: 596712329 heartbeat IPC: 0.798567 cumulative IPC: 0.450993 (Simulation time: 0 hr 46 min 18 sec) 
Heartbeat CPU 0 instructions: 280000002 cycles: 609321036 heartbeat IPC: 0.793103 cumulative IPC: 0.458075 (Simulation time: 0 hr 47 min 28 sec) 
Heartbeat CPU 0 instructions: 290000000 cycles: 621965149 heartbeat IPC: 0.790882 cumulative IPC: 0.464843 (Simulation time: 0 hr 48 min 36 sec) 
Heartbeat CPU 0 instructions: 300000004 cycles: 634776493 heartbeat IPC: 0.780559 cumulative IPC: 0.471218 (Simulation time: 0 hr 49 min 43 sec) 
Heartbeat CPU 0 instructions: 310000000 cycles: 648268656 heartbeat IPC: 0.741171 cumulative IPC: 0.476838 (Simulation time: 0 hr 51 min 0 sec) 
Heartbeat CPU 0 instructions: 320000004 cycles: 661174014 heartbeat IPC: 0.774872 cumulative IPC: 0.482658 (Simulation time: 0 hr 52 min 14 sec) 
Heartbeat CPU 0 instructions: 330000003 cycles: 674020867 heartbeat IPC: 0.778401 cumulative IPC: 0.488297 (Simulation time: 0 hr 53 min 26 sec) 
Heartbeat CPU 0 instructions: 340000003 cycles: 686871514 heartbeat IPC: 0.778171 cumulative IPC: 0.493722 (Simulation time: 0 hr 54 min 30 sec) 
Heartbeat CPU 0 instructions: 350000001 cycles: 699338776 heartbeat IPC: 0.802101 cumulative IPC: 0.499221 (Simulation time: 0 hr 55 min 42 sec) 
Heartbeat CPU 0 instructions: 360000001 cycles: 711547138 heartbeat IPC: 0.819111 cumulative IPC: 0.504712 (Simulation time: 0 hr 56 min 47 sec) 
Heartbeat CPU 0 instructions: 370000003 cycles: 724323815 heartbeat IPC: 0.782676 cumulative IPC: 0.509617 (Simulation time: 0 hr 57 min 56 sec) 
Heartbeat CPU 0 instructions: 380000002 cycles: 736499054 heartbeat IPC: 0.821339 cumulative IPC: 0.514772 (Simulation time: 0 hr 59 min 2 sec) 
Heartbeat CPU 0 instructions: 390000000 cycles: 749075624 heartbeat IPC: 0.795129 cumulative IPC: 0.51948 (Simulation time: 1 hr 0 min 13 sec) 
Heartbeat CPU 0 instructions: 400000001 cycles: 761908150 heartbeat IPC: 0.77927 cumulative IPC: 0.523857 (Simulation time: 1 hr 1 min 23 sec) 
Heartbeat CPU 0 instructions: 410000004 cycles: 774130717 heartbeat IPC: 0.818159 cumulative IPC: 0.528505 (Simulation time: 1 hr 2 min 30 sec) 
Heartbeat CPU 0 instructions: 420000002 cycles: 786752725 heartbeat IPC: 0.792267 cumulative IPC: 0.532738 (Simulation time: 1 hr 3 min 38 sec) 
Heartbeat CPU 0 instructions: 430000004 cycles: 799304349 heartbeat IPC: 0.79671 cumulative IPC: 0.536885 (Simulation time: 1 hr 4 min 51 sec) 
Heartbeat CPU 0 instructions: 440000000 cycles: 812285423 heartbeat IPC: 0.770352 cumulative IPC: 0.540617 (Simulation time: 1 hr 6 min 8 sec) 
Heartbeat CPU 0 instructions: 450000003 cycles: 825418371 heartbeat IPC: 0.761444 cumulative IPC: 0.544132 (Simulation time: 1 hr 7 min 22 sec) 
Heartbeat CPU 0 instructions: 460000002 cycles: 838328079 heartbeat IPC: 0.774611 cumulative IPC: 0.547682 (Simulation time: 1 hr 8 min 31 sec) 
Heartbeat CPU 0 instructions: 470000004 cycles: 850868802 heartbeat IPC: 0.797402 cumulative IPC: 0.551363 (Simulation time: 1 hr 9 min 36 sec) 
Heartbeat CPU 0 instructions: 480000002 cycles: 863373357 heartbeat IPC: 0.799708 cumulative IPC: 0.554961 (Simulation time: 1 hr 10 min 38 sec) 
Heartbeat CPU 0 instructions: 490000003 cycles: 875661558 heartbeat IPC: 0.813789 cumulative IPC: 0.558595 (Simulation time: 1 hr 11 min 39 sec) 
Heartbeat CPU 0 instructions: 500000001 cycles: 888250705 heartbeat IPC: 0.794335 cumulative IPC: 0.561937 (Simulation time: 1 hr 12 min 40 sec) 
Heartbeat CPU 0 instructions: 510000001 cycles: 900967398 heartbeat IPC: 0.786368 cumulative IPC: 0.565105 (Simulation time: 1 hr 13 min 43 sec) 
Heartbeat CPU 0 instructions: 520000000 cycles: 914208793 heartbeat IPC: 0.755207 cumulative IPC: 0.567859 (Simulation time: 1 hr 14 min 48 sec) 
Heartbeat CPU 0 instructions: 530000000 cycles: 927281916 heartbeat IPC: 0.764928 cumulative IPC: 0.570639 (Simulation time: 1 hr 15 min 51 sec) 
Heartbeat CPU 0 instructions: 540000001 cycles: 940084805 heartbeat IPC: 0.781074 cumulative IPC: 0.573505 (Simulation time: 1 hr 16 min 55 sec) 
Heartbeat CPU 0 instructions: 550000000 cycles: 952664863 heartbeat IPC: 0.794909 cumulative IPC: 0.57643 (Simulation time: 1 hr 17 min 55 sec) 
Heartbeat CPU 0 instructions: 560000003 cycles: 965579938 heartbeat IPC: 0.774289 cumulative IPC: 0.579077 (Simulation time: 1 hr 18 min 56 sec) 
Heartbeat CPU 0 instructions: 570000002 cycles: 978388560 heartbeat IPC: 0.780724 cumulative IPC: 0.581717 (Simulation time: 1 hr 19 min 55 sec) 
Heartbeat CPU 0 instructions: 580000004 cycles: 990679915 heartbeat IPC: 0.81358 cumulative IPC: 0.584595 (Simulation time: 1 hr 20 min 55 sec) 
Heartbeat CPU 0 instructions: 590000002 cycles: 1003452903 heartbeat IPC: 0.782902 cumulative IPC: 0.58712 (Simulation time: 1 hr 21 min 56 sec) 
Heartbeat CPU 0 instructions: 600000002 cycles: 1015924955 heartbeat IPC: 0.801793 cumulative IPC: 0.589756 (Simulation time: 1 hr 22 min 55 sec) 
Heartbeat CPU 0 instructions: 610000002 cycles: 1028364017 heartbeat IPC: 0.803919 cumulative IPC: 0.592347 (Simulation time: 1 hr 23 min 53 sec) 
Heartbeat CPU 0 instructions: 620000001 cycles: 1041247831 heartbeat IPC: 0.776168 cumulative IPC: 0.594622 (Simulation time: 1 hr 24 min 55 sec) 
Heartbeat CPU 0 instructions: 630000002 cycles: 1053643729 heartbeat IPC: 0.806719 cumulative IPC: 0.597118 (Simulation time: 1 hr 25 min 53 sec) 
Heartbeat CPU 0 instructions: 640000002 cycles: 1066602861 heartbeat IPC: 0.771657 cumulative IPC: 0.599239 (Simulation time: 1 hr 26 min 55 sec) 
Heartbeat CPU 0 instructions: 650000001 cycles: 1079172747 heartbeat IPC: 0.795552 cumulative IPC: 0.601526 (Simulation time: 1 hr 27 min 55 sec) 
Heartbeat CPU 0 instructions: 660000002 cycles: 1091979736 heartbeat IPC: 0.780824 cumulative IPC: 0.603629 (Simulation time: 1 hr 28 min 52 sec) 
Heartbeat CPU 0 instructions: 670000000 cycles: 1104330997 heartbeat IPC: 0.809634 cumulative IPC: 0.605934 (Simulation time: 1 hr 29 min 50 sec) 
Heartbeat CPU 0 instructions: 680000002 cycles: 1117600557 heartbeat IPC: 0.753605 cumulative IPC: 0.607688 (Simulation time: 1 hr 30 min 51 sec) 
Heartbeat CPU 0 instructions: 690000001 cycles: 1130148067 heartbeat IPC: 0.796971 cumulative IPC: 0.60979 (Simulation time: 1 hr 31 min 47 sec) 
Heartbeat CPU 0 instructions: 700000000 cycles: 1142675795 heartbeat IPC: 0.798229 cumulative IPC: 0.611856 (Simulation time: 1 hr 32 min 42 sec) 
Heartbeat CPU 0 instructions: 710000000 cycles: 1155351248 heartbeat IPC: 0.788926 cumulative IPC: 0.613799 (Simulation time: 1 hr 33 min 39 sec) 
Heartbeat CPU 0 instructions: 720000001 cycles: 1168064877 heartbeat IPC: 0.786558 cumulative IPC: 0.61568 (Simulation time: 1 hr 34 min 37 sec) 
Heartbeat CPU 0 instructions: 730000002 cycles: 1180429730 heartbeat IPC: 0.808744 cumulative IPC: 0.617703 (Simulation time: 1 hr 35 min 33 sec) 
Heartbeat CPU 0 instructions: 740000002 cycles: 1193067330 heartbeat IPC: 0.79129 cumulative IPC: 0.619542 (Simulation time: 1 hr 36 min 30 sec) 
Heartbeat CPU 0 instructions: 750000001 cycles: 1205586249 heartbeat IPC: 0.798791 cumulative IPC: 0.621403 (Simulation time: 1 hr 37 min 23 sec) 
Heartbeat CPU 0 instructions: 760000000 cycles: 1218934095 heartbeat IPC: 0.749184 cumulative IPC: 0.622803 (Simulation time: 1 hr 38 min 21 sec) 
Heartbeat CPU 0 instructions: 770000000 cycles: 1231532097 heartbeat IPC: 0.793777 cumulative IPC: 0.624552 (Simulation time: 1 hr 39 min 16 sec) 
Heartbeat CPU 0 instructions: 780000004 cycles: 1244287173 heartbeat IPC: 0.784002 cumulative IPC: 0.626187 (Simulation time: 1 hr 40 min 9 sec) 
Heartbeat CPU 0 instructions: 790000000 cycles: 1256844412 heartbeat IPC: 0.796353 cumulative IPC: 0.627888 (Simulation time: 1 hr 41 min 1 sec) 
Heartbeat CPU 0 instructions: 800000002 cycles: 1269473598 heartbeat IPC: 0.791817 cumulative IPC: 0.629519 (Simulation time: 1 hr 41 min 50 sec) 
Heartbeat CPU 0 instructions: 810000003 cycles: 1281641926 heartbeat IPC: 0.821806 cumulative IPC: 0.631345 (Simulation time: 1 hr 42 min 37 sec) 
Heartbeat CPU 0 instructions: 820000000 cycles: 1294240067 heartbeat IPC: 0.793768 cumulative IPC: 0.632926 (Simulation time: 1 hr 43 min 24 sec) 
Heartbeat CPU 0 instructions: 830000000 cycles: 1306506638 heartbeat IPC: 0.815224 cumulative IPC: 0.634638 (Simulation time: 1 hr 44 min 9 sec) 
Heartbeat CPU 0 instructions: 840000001 cycles: 1319326774 heartbeat IPC: 0.780023 cumulative IPC: 0.636051 (Simulation time: 1 hr 44 min 57 sec) 
Heartbeat CPU 0 instructions: 850000002 cycles: 1331925902 heartbeat IPC: 0.793706 cumulative IPC: 0.637543 (Simulation time: 1 hr 45 min 44 sec) 
Heartbeat CPU 0 instructions: 860000002 cycles: 1344706806 heartbeat IPC: 0.782417 cumulative IPC: 0.63892 (Simulation time: 1 hr 46 min 32 sec) 
Heartbeat CPU 0 instructions: 870000002 cycles: 1357011855 heartbeat IPC: 0.812675 cumulative IPC: 0.640496 (Simulation time: 1 hr 47 min 19 sec) 
Heartbeat CPU 0 instructions: 880000004 cycles: 1369649099 heartbeat IPC: 0.791312 cumulative IPC: 0.641887 (Simulation time: 1 hr 48 min 5 sec) 
Heartbeat CPU 0 instructions: 890000001 cycles: 1382125485 heartbeat IPC: 0.801514 cumulative IPC: 0.643329 (Simulation time: 1 hr 48 min 50 sec) 
Heartbeat CPU 0 instructions: 900000000 cycles: 1394931018 heartbeat IPC: 0.780912 cumulative IPC: 0.644592 (Simulation time: 1 hr 49 min 35 sec) 
Heartbeat CPU 0 instructions: 910000000 cycles: 1408448644 heartbeat IPC: 0.739775 cumulative IPC: 0.645506 (Simulation time: 1 hr 50 min 23 sec) 
Heartbeat CPU 0 instructions: 920000002 cycles: 1421401880 heartbeat IPC: 0.772008 cumulative IPC: 0.646659 (Simulation time: 1 hr 51 min 11 sec) 
Heartbeat CPU 0 instructions: 930000004 cycles: 1434022910 heartbeat IPC: 0.792329 cumulative IPC: 0.647941 (Simulation time: 1 hr 51 min 56 sec) 
Heartbeat CPU 0 instructions: 940000003 cycles: 1446548958 heartbeat IPC: 0.798336 cumulative IPC: 0.649243 (Simulation time: 1 hr 52 min 41 sec) 
Heartbeat CPU 0 instructions: 950000001 cycles: 1458993680 heartbeat IPC: 0.803553 cumulative IPC: 0.65056 (Simulation time: 1 hr 53 min 26 sec) 
Heartbeat CPU 0 instructions: 960000001 cycles: 1472142153 heartbeat IPC: 0.760545 cumulative IPC: 0.651542 (Simulation time: 1 hr 54 min 12 sec) 
Heartbeat CPU 0 instructions: 970000001 cycles: 1485191956 heartbeat IPC: 0.766295 cumulative IPC: 0.652551 (Simulation time: 1 hr 54 min 59 sec) 
Heartbeat CPU 0 instructions: 980000001 cycles: 1497613899 heartbeat IPC: 0.805027 cumulative IPC: 0.653816 (Simulation time: 1 hr 55 min 43 sec) 
Heartbeat CPU 0 instructions: 990000000 cycles: 1510585550 heartbeat IPC: 0.770912 cumulative IPC: 0.654821 (Simulation time: 1 hr 56 min 28 sec) 
Heartbeat CPU 0 instructions: 1000000001 cycles: 1523081294 heartbeat IPC: 0.800273 cumulative IPC: 0.656015 (Simulation time: 1 hr 57 min 12 sec) 
Finished CPU 0 instructions: 1000000001 cycles: 1524101207 cumulative IPC: 0.656124 (Simulation time: 1 hr 57 min 17 sec) 

ChampSim completed all CPUs

Region of Interest Statistics

CPU 0 cumulative IPC: 0.656124 instructions: 1000000001 cycles: 1524101207
cpu0_DTLB TOTAL     ACCESS:  226860067  HIT:  221567184  MISS:    5292883
cpu0_DTLB LOAD      ACCESS:  166486783  HIT:  161763540  MISS:    4723243
cpu0_DTLB RFO       ACCESS:   60373284  HIT:   59803644  MISS:     569640
cpu0_DTLB PREFETCH  ACCESS:          0  HIT:          0  MISS:          0
cpu0_DTLB WRITEBACK ACCESS:          0  HIT:          0  MISS:          0
cpu0_DTLB TRANSLATION ACCESS:          0  HIT:          0  MISS:          0
cpu0_DTLB PREFETCH  REQUESTED:          0  ISSUED:          0  USEFUL:          0  USELESS:          0
cpu0_DTLB AVERAGE MISS LATENCY: 14.1934 cycles
cpu0_ITLB TOTAL     ACCESS:   82579009  HIT:   82577047  MISS:       1962
cpu0_ITLB LOAD      ACCESS:   82579009  HIT:   82577047  MISS:       1962
cpu0_ITLB RFO       ACCESS:          0  HIT:          0  MISS:          0
cpu0_ITLB PREFETCH  ACCESS:          0  HIT:          0  MISS:          0
cpu0_ITLB WRITEBACK ACCESS:          0  HIT:          0  MISS:          0
cpu0_ITLB TRANSLATION ACCESS:          0  HIT:          0  MISS:          0
cpu0_ITLB PREFETCH  REQUESTED:          0  ISSUED:          0  USEFUL:          0  USELESS:          0
cpu0_ITLB AVERAGE MISS LATENCY: 13.8364 cycles
cpu0_L1I TOTAL     ACCESS:   98881242  HIT:   98878340  MISS:       2902
cpu0_L1I LOAD      ACCESS:   98881242  HIT:   98878340  MISS:       2902
cpu0_L1I RFO       ACCESS:          0  HIT:          0  MISS:          0
cpu0_L1I PREFETCH  ACCESS:          0  HIT:          0  MISS:          0
cpu0_L1I WRITEBACK ACCESS:          0  HIT:          0  MISS:          0
cpu0_L1I TRANSLATION ACCESS:          0  HIT:          0  MISS:          0
cpu0_L1I PREFETCH  REQUESTED:          0  ISSUED:          0  USEFUL:          0  USELESS:          0
cpu0_L1I AVERAGE MISS LATENCY: 169.413 cycles
cpu0_STLB TOTAL     ACCESS:    5294845  HIT:    2965820  MISS:    2329025
cpu0_STLB LOAD      ACCESS:    4725205  HIT:    2936809  MISS:    1788396
cpu0_STLB RFO       ACCESS:     569640  HIT:      29011  MISS:     540629
cpu0_STLB PREFETCH  ACCESS:          0  HIT:          0  MISS:          0
cpu0_STLB WRITEBACK ACCESS:          0  HIT:          0  MISS:          0
cpu0_STLB TRANSLATION ACCESS:          0  HIT:          0  MISS:          0
cpu0_STLB PREFETCH  REQUESTED:          0  ISSUED:          0  USEFUL:          0  USELESS:          0
cpu0_STLB AVERAGE MISS LATENCY: 11.7497 cycles
cpu0_L1D TOTAL     ACCESS:  457562669  HIT:  439201830  MISS:   18360839
cpu0_L1D LOAD      ACCESS:  159724233  HIT:  151401699  MISS:    8322534
cpu0_L1D RFO       ACCESS:  137374373  HIT:  136065376  MISS:    1308997
cpu0_L1D PREFETCH  ACCESS:  158147912  HIT:  149454124  MISS:    8693788
cpu0_L1D WRITEBACK ACCESS:          0  HIT:          0  MISS:          0
cpu0_L1D TRANSLATION ACCESS:    2316151  HIT:    2280631  MISS:      35520
cpu0_L1D PREFETCH  REQUESTED:  160299427  ISSUED:  159656788  USEFUL:    4484804  USELESS:    4269546
cpu0_L1D AVERAGE MISS LATENCY: 139.826 cycles
cpu0_L2C TOTAL     ACCESS:   21132121  HIT:    4372436  MISS:   16759685
cpu0_L2C LOAD      ACCESS:    8273868  HIT:     947562  MISS:    7326306
cpu0_L2C RFO       ACCESS:    1299758  HIT:      13480  MISS:    1286278
cpu0_L2C PREFETCH  ACCESS:    9219137  HIT:    1086755  MISS:    8132382
cpu0_L2C WRITEBACK ACCESS:    2303838  HIT:    2297347  MISS:       6491
cpu0_L2C TRANSLATION ACCESS:      35520  HIT:      27292  MISS:       8228
cpu0_L2C PREFETCH  REQUESTED:     481134  ISSUED:     472303  USEFUL:      98470  USELESS:     191091
cpu0_L2C AVERAGE MISS LATENCY: 143.507 cycles
LLC TOTAL     ACCESS:   19024935  HIT:   14846700  MISS:    4178235
LLC LOAD      ACCESS:    7326296  HIT:    5983860  MISS:    1342436
LLC RFO       ACCESS:    1286277  HIT:       3280  MISS:    1282997
LLC PREFETCH  ACCESS:    8135802  HIT:    6608923  MISS:    1526879
LLC WRITEBACK ACCESS:    2268332  HIT:    2242625  MISS:      25707
LLC TRANSLATION ACCESS:       8228  HIT:       8012  MISS:        216
LLC PREFETCH  REQUESTED:          0  ISSUED:          0  USEFUL:          0  USELESS:          0
LLC AVERAGE MISS LATENCY: 467.952 cycles

DRAM Statistics
 CHANNEL 0
 RQ ROW_BUFFER_HIT:     399498  ROW_BUFFER_MISS:    3752967
 DBUS AVG_CONGESTED_CYCLE:    3.83959
 WQ ROW_BUFFER_HIT:     316401  ROW_BUFFER_MISS:    1545412  FULL:          0


CPU 0 Branch Prediction Accuracy: 92.9219% MPKI: 16.69 Average ROB Occupancy at Mispredict: 28.6343
Branch type MPKI
BRANCH_DIRECT_JUMP: 0.000223
BRANCH_INDIRECT: 0.103654
BRANCH_CONDITIONAL: 16.5852
BRANCH_DIRECT_CALL: 0.000322
BRANCH_INDIRECT_CALL: 0.000204
BRANCH_RETURN: 0.000382

