
*** ChampSim Multicore Out-of-Order Simulator ***

Warmup Instructions: 1000000
Simulation Instructions: 1000000000
Number of CPUs: 1
Off-chip DRAM Size: 4 GiB Channels: 1 Width: 64-bit Data Rate: 3200 MT/s

VirtualMemory physical capacity: 8588881920 num_ppages: 2096895
VirtualMemory page size: 4096 log2_page_size: 12

CPU 0 runs tracer/pin/traces/spec2k17/621.wrf_s-575B.champsimtrace.xz
Basic BTB sets: 1024 ways: 8 indirect buffer size: 4096 RAS size: 64
cpu0_L1D next line prefetcher
cpu0_L2C IP-based stride prefetcher
WARNING: The extended signature CACHE::prefetch_line(ip, base_addr, pf_addr, fill_this_level, prefetch_metadata) is deprecated.
WARNING: Use CACHE::prefetch_line(pf_addr, fill_this_level, prefetch_metadata) instead.

Warmup complete CPU 0 instructions: 1000001 cycles: 250098 (Simulation time: 0 hr 0 min 2 sec) 

Heartbeat CPU 0 instructions: 10000001 cycles: 8433671 heartbeat IPC: 1.18572 cumulative IPC: 1.09976 (Simulation time: 0 hr 0 min 43 sec) 
Heartbeat CPU 0 instructions: 20000000 cycles: 17454356 heartbeat IPC: 1.10856 cumulative IPC: 1.10438 (Simulation time: 0 hr 1 min 26 sec) 
Heartbeat CPU 0 instructions: 30000002 cycles: 26516597 heartbeat IPC: 1.10348 cumulative IPC: 1.10407 (Simulation time: 0 hr 2 min 13 sec) 
Heartbeat CPU 0 instructions: 40000004 cycles: 35563865 heartbeat IPC: 1.10531 cumulative IPC: 1.10439 (Simulation time: 0 hr 3 min 5 sec) 
Heartbeat CPU 0 instructions: 50000003 cycles: 44606106 heartbeat IPC: 1.10592 cumulative IPC: 1.1047 (Simulation time: 0 hr 3 min 49 sec) 
Heartbeat CPU 0 instructions: 60000002 cycles: 53637221 heartbeat IPC: 1.10728 cumulative IPC: 1.10514 (Simulation time: 0 hr 4 min 40 sec) 
Heartbeat CPU 0 instructions: 70000000 cycles: 62628306 heartbeat IPC: 1.11221 cumulative IPC: 1.10616 (Simulation time: 0 hr 5 min 31 sec) 
Heartbeat CPU 0 instructions: 80000002 cycles: 71564717 heartbeat IPC: 1.11902 cumulative IPC: 1.10777 (Simulation time: 0 hr 6 min 24 sec) 
Heartbeat CPU 0 instructions: 90000000 cycles: 80563050 heartbeat IPC: 1.11132 cumulative IPC: 1.10816 (Simulation time: 0 hr 7 min 16 sec) 
Heartbeat CPU 0 instructions: 100000000 cycles: 89519189 heartbeat IPC: 1.11655 cumulative IPC: 1.10901 (Simulation time: 0 hr 8 min 7 sec) 
Heartbeat CPU 0 instructions: 110000002 cycles: 98433172 heartbeat IPC: 1.12183 cumulative IPC: 1.11017 (Simulation time: 0 hr 9 min 3 sec) 
Heartbeat CPU 0 instructions: 120000001 cycles: 107228317 heartbeat IPC: 1.13699 cumulative IPC: 1.11238 (Simulation time: 0 hr 9 min 56 sec) 
Heartbeat CPU 0 instructions: 130000000 cycles: 116096861 heartbeat IPC: 1.12758 cumulative IPC: 1.11354 (Simulation time: 0 hr 10 min 51 sec) 
Heartbeat CPU 0 instructions: 140000001 cycles: 124937774 heartbeat IPC: 1.13111 cumulative IPC: 1.11479 (Simulation time: 0 hr 11 min 46 sec) 
Heartbeat CPU 0 instructions: 150000000 cycles: 133655702 heartbeat IPC: 1.14706 cumulative IPC: 1.11689 (Simulation time: 0 hr 12 min 41 sec) 
Heartbeat CPU 0 instructions: 160000002 cycles: 142399454 heartbeat IPC: 1.14367 cumulative IPC: 1.11854 (Simulation time: 0 hr 13 min 35 sec) 
Heartbeat CPU 0 instructions: 170000003 cycles: 151122234 heartbeat IPC: 1.14642 cumulative IPC: 1.12015 (Simulation time: 0 hr 14 min 32 sec) 
Heartbeat CPU 0 instructions: 180000000 cycles: 159874424 heartbeat IPC: 1.14257 cumulative IPC: 1.12138 (Simulation time: 0 hr 15 min 29 sec) 
Heartbeat CPU 0 instructions: 190000004 cycles: 168681388 heartbeat IPC: 1.13547 cumulative IPC: 1.12212 (Simulation time: 0 hr 16 min 27 sec) 
Heartbeat CPU 0 instructions: 200000000 cycles: 177446149 heartbeat IPC: 1.14093 cumulative IPC: 1.12305 (Simulation time: 0 hr 17 min 28 sec) 
Heartbeat CPU 0 instructions: 210000000 cycles: 186098165 heartbeat IPC: 1.1558 cumulative IPC: 1.12457 (Simulation time: 0 hr 18 min 29 sec) 
Heartbeat CPU 0 instructions: 220000001 cycles: 194722586 heartbeat IPC: 1.1595 cumulative IPC: 1.12612 (Simulation time: 0 hr 19 min 30 sec) 
Heartbeat CPU 0 instructions: 230000002 cycles: 203405889 heartbeat IPC: 1.15164 cumulative IPC: 1.12721 (Simulation time: 0 hr 20 min 33 sec) 
Heartbeat CPU 0 instructions: 240000003 cycles: 212153391 heartbeat IPC: 1.14318 cumulative IPC: 1.12787 (Simulation time: 0 hr 21 min 36 sec) 
Heartbeat CPU 0 instructions: 250000003 cycles: 220915335 heartbeat IPC: 1.1413 cumulative IPC: 1.12841 (Simulation time: 0 hr 22 min 39 sec) 
Heartbeat CPU 0 instructions: 260000000 cycles: 229681502 heartbeat IPC: 1.14075 cumulative IPC: 1.12888 (Simulation time: 0 hr 23 min 44 sec) 
Heartbeat CPU 0 instructions: 270000001 cycles: 238430488 heartbeat IPC: 1.14299 cumulative IPC: 1.1294 (Simulation time: 0 hr 24 min 48 sec) 
Heartbeat CPU 0 instructions: 280000002 cycles: 247178996 heartbeat IPC: 1.14305 cumulative IPC: 1.12988 (Simulation time: 0 hr 25 min 53 sec) 
Heartbeat CPU 0 instructions: 290000000 cycles: 255975176 heartbeat IPC: 1.13686 cumulative IPC: 1.13012 (Simulation time: 0 hr 26 min 57 sec) 
Heartbeat CPU 0 instructions: 300000001 cycles: 264759604 heartbeat IPC: 1.13838 cumulative IPC: 1.13039 (Simulation time: 0 hr 28 min 2 sec) 
Heartbeat CPU 0 instructions: 310000003 cycles: 273477195 heartbeat IPC: 1.14711 cumulative IPC: 1.13093 (Simulation time: 0 hr 29 min 6 sec) 
Heartbeat CPU 0 instructions: 320000002 cycles: 282331651 heartbeat IPC: 1.12937 cumulative IPC: 1.13088 (Simulation time: 0 hr 30 min 12 sec) 
Heartbeat CPU 0 instructions: 330000002 cycles: 291116551 heartbeat IPC: 1.13832 cumulative IPC: 1.1311 (Simulation time: 0 hr 31 min 16 sec) 
Heartbeat CPU 0 instructions: 340000001 cycles: 298709101 heartbeat IPC: 1.31708 cumulative IPC: 1.13583 (Simulation time: 0 hr 32 min 21 sec) 
Heartbeat CPU 0 instructions: 350000001 cycles: 305867569 heartbeat IPC: 1.39695 cumulative IPC: 1.14195 (Simulation time: 0 hr 33 min 25 sec) 
Heartbeat CPU 0 instructions: 360000001 cycles: 313210971 heartbeat IPC: 1.36177 cumulative IPC: 1.14711 (Simulation time: 0 hr 34 min 27 sec) 
Heartbeat CPU 0 instructions: 370000004 cycles: 320560883 heartbeat IPC: 1.36056 cumulative IPC: 1.15201 (Simulation time: 0 hr 35 min 32 sec) 
Heartbeat CPU 0 instructions: 380000000 cycles: 327938836 heartbeat IPC: 1.35539 cumulative IPC: 1.15659 (Simulation time: 0 hr 36 min 36 sec) 
Heartbeat CPU 0 instructions: 390000000 cycles: 358882659 heartbeat IPC: 0.323166 cumulative IPC: 1.08468 (Simulation time: 0 hr 39 min 47 sec) 
Heartbeat CPU 0 instructions: 400000004 cycles: 365102270 heartbeat IPC: 1.60782 cumulative IPC: 1.09359 (Simulation time: 0 hr 40 min 50 sec) 
Heartbeat CPU 0 instructions: 410000000 cycles: 371277973 heartbeat IPC: 1.61925 cumulative IPC: 1.10234 (Simulation time: 0 hr 41 min 54 sec) 
Heartbeat CPU 0 instructions: 420000002 cycles: 377124004 heartbeat IPC: 1.71056 cumulative IPC: 1.11178 (Simulation time: 0 hr 42 min 56 sec) 
Heartbeat CPU 0 instructions: 430000000 cycles: 383042578 heartbeat IPC: 1.6896 cumulative IPC: 1.12071 (Simulation time: 0 hr 43 min 58 sec) 
Heartbeat CPU 0 instructions: 440000000 cycles: 389009657 heartbeat IPC: 1.67586 cumulative IPC: 1.12923 (Simulation time: 0 hr 45 min 1 sec) 
Heartbeat CPU 0 instructions: 450000001 cycles: 395026548 heartbeat IPC: 1.66199 cumulative IPC: 1.13735 (Simulation time: 0 hr 46 min 2 sec) 
Heartbeat CPU 0 instructions: 460000001 cycles: 400897258 heartbeat IPC: 1.70337 cumulative IPC: 1.14565 (Simulation time: 0 hr 47 min 4 sec) 
Heartbeat CPU 0 instructions: 470000004 cycles: 406633054 heartbeat IPC: 1.74344 cumulative IPC: 1.15408 (Simulation time: 0 hr 48 min 4 sec) 
Heartbeat CPU 0 instructions: 480000001 cycles: 412608469 heartbeat IPC: 1.67352 cumulative IPC: 1.16161 (Simulation time: 0 hr 49 min 6 sec) 
Heartbeat CPU 0 instructions: 490000002 cycles: 421031235 heartbeat IPC: 1.18726 cumulative IPC: 1.16212 (Simulation time: 0 hr 50 min 19 sec) 
Heartbeat CPU 0 instructions: 500000001 cycles: 428669778 heartbeat IPC: 1.30915 cumulative IPC: 1.16475 (Simulation time: 0 hr 51 min 31 sec) 
Heartbeat CPU 0 instructions: 510000002 cycles: 436223776 heartbeat IPC: 1.3238 cumulative IPC: 1.1675 (Simulation time: 0 hr 52 min 43 sec) 
Heartbeat CPU 0 instructions: 520000001 cycles: 443663059 heartbeat IPC: 1.34422 cumulative IPC: 1.17047 (Simulation time: 0 hr 53 min 54 sec) 
Heartbeat CPU 0 instructions: 530000004 cycles: 451269083 heartbeat IPC: 1.31475 cumulative IPC: 1.1729 (Simulation time: 0 hr 55 min 5 sec) 
Heartbeat CPU 0 instructions: 540000002 cycles: 458781468 heartbeat IPC: 1.33113 cumulative IPC: 1.17549 (Simulation time: 0 hr 56 min 16 sec) 
Heartbeat CPU 0 instructions: 550000003 cycles: 466330803 heartbeat IPC: 1.32462 cumulative IPC: 1.17791 (Simulation time: 0 hr 57 min 27 sec) 
Heartbeat CPU 0 instructions: 560000000 cycles: 473632946 heartbeat IPC: 1.36946 cumulative IPC: 1.18086 (Simulation time: 0 hr 58 min 39 sec) 
Heartbeat CPU 0 instructions: 570000004 cycles: 481143285 heartbeat IPC: 1.3315 cumulative IPC: 1.18321 (Simulation time: 0 hr 59 min 50 sec) 
Heartbeat CPU 0 instructions: 580000002 cycles: 488697345 heartbeat IPC: 1.32379 cumulative IPC: 1.18539 (Simulation time: 1 hr 1 min 0 sec) 
Heartbeat CPU 0 instructions: 590000000 cycles: 496262769 heartbeat IPC: 1.3218 cumulative IPC: 1.18747 (Simulation time: 1 hr 2 min 13 sec) 
Heartbeat CPU 0 instructions: 600000000 cycles: 503635183 heartbeat IPC: 1.35641 cumulative IPC: 1.18994 (Simulation time: 1 hr 3 min 26 sec) 
Heartbeat CPU 0 instructions: 610000003 cycles: 511069046 heartbeat IPC: 1.3452 cumulative IPC: 1.1922 (Simulation time: 1 hr 4 min 39 sec) 
Heartbeat CPU 0 instructions: 620000004 cycles: 543856546 heartbeat IPC: 0.304994 cumulative IPC: 1.13869 (Simulation time: 1 hr 8 min 2 sec) 
Heartbeat CPU 0 instructions: 630000004 cycles: 576471491 heartbeat IPC: 0.306608 cumulative IPC: 1.09159 (Simulation time: 1 hr 11 min 18 sec) 
Heartbeat CPU 0 instructions: 640000004 cycles: 600529561 heartbeat IPC: 0.415661 cumulative IPC: 1.0645 (Simulation time: 1 hr 13 min 54 sec) 
Heartbeat CPU 0 instructions: 650000004 cycles: 632710335 heartbeat IPC: 0.310745 cumulative IPC: 1.02615 (Simulation time: 1 hr 17 min 7 sec) 
Heartbeat CPU 0 instructions: 660000001 cycles: 646774767 heartbeat IPC: 0.711013 cumulative IPC: 1.0193 (Simulation time: 1 hr 18 min 57 sec) 
Heartbeat CPU 0 instructions: 670000002 cycles: 662916356 heartbeat IPC: 0.619518 cumulative IPC: 1.00956 (Simulation time: 1 hr 20 min 55 sec) 
Heartbeat CPU 0 instructions: 680000004 cycles: 711963668 heartbeat IPC: 0.203885 cumulative IPC: 0.954035 (Simulation time: 1 hr 25 min 13 sec) 
Heartbeat CPU 0 instructions: 690000002 cycles: 718910881 heartbeat IPC: 1.43943 cumulative IPC: 0.958728 (Simulation time: 1 hr 26 min 26 sec) 
Heartbeat CPU 0 instructions: 700000000 cycles: 726387511 heartbeat IPC: 1.3375 cumulative IPC: 0.962628 (Simulation time: 1 hr 27 min 39 sec) 
Heartbeat CPU 0 instructions: 710000001 cycles: 733585131 heartbeat IPC: 1.38935 cumulative IPC: 0.966816 (Simulation time: 1 hr 28 min 51 sec) 
Heartbeat CPU 0 instructions: 720000004 cycles: 741260550 heartbeat IPC: 1.30286 cumulative IPC: 0.970297 (Simulation time: 1 hr 30 min 5 sec) 
Heartbeat CPU 0 instructions: 730000003 cycles: 748856674 heartbeat IPC: 1.31646 cumulative IPC: 0.973809 (Simulation time: 1 hr 31 min 15 sec) 
Heartbeat CPU 0 instructions: 740000004 cycles: 765243284 heartbeat IPC: 0.610254 cumulative IPC: 0.966022 (Simulation time: 1 hr 33 min 8 sec) 
Heartbeat CPU 0 instructions: 750000004 cycles: 795936766 heartbeat IPC: 0.325802 cumulative IPC: 0.941325 (Simulation time: 1 hr 36 min 1 sec) 
Heartbeat CPU 0 instructions: 760000000 cycles: 811507520 heartbeat IPC: 0.642229 cumulative IPC: 0.935585 (Simulation time: 1 hr 37 min 44 sec) 
Heartbeat CPU 0 instructions: 770000001 cycles: 834167158 heartbeat IPC: 0.441313 cumulative IPC: 0.922154 (Simulation time: 1 hr 39 min 58 sec) 
Heartbeat CPU 0 instructions: 780000003 cycles: 848305418 heartbeat IPC: 0.707301 cumulative IPC: 0.918572 (Simulation time: 1 hr 41 min 32 sec) 
Heartbeat CPU 0 instructions: 790000004 cycles: 861827218 heartbeat IPC: 0.739547 cumulative IPC: 0.915762 (Simulation time: 1 hr 43 min 3 sec) 
Heartbeat CPU 0 instructions: 800000003 cycles: 877525880 heartbeat IPC: 0.636997 cumulative IPC: 0.910774 (Simulation time: 1 hr 44 min 40 sec) 
Heartbeat CPU 0 instructions: 810000000 cycles: 896753812 heartbeat IPC: 0.520077 cumulative IPC: 0.902394 (Simulation time: 1 hr 46 min 42 sec) 
Heartbeat CPU 0 instructions: 820000003 cycles: 960736031 heartbeat IPC: 0.156293 cumulative IPC: 0.852693 (Simulation time: 1 hr 50 min 45 sec) 
Heartbeat CPU 0 instructions: 830000002 cycles: 994968767 heartbeat IPC: 0.292118 cumulative IPC: 0.833401 (Simulation time: 1 hr 53 min 16 sec) 
Heartbeat CPU 0 instructions: 840000004 cycles: 1021291202 heartbeat IPC: 0.379904 cumulative IPC: 0.82171 (Simulation time: 1 hr 55 min 13 sec) 
Heartbeat CPU 0 instructions: 850000004 cycles: 1081128196 heartbeat IPC: 0.167121 cumulative IPC: 0.785473 (Simulation time: 1 hr 59 min 29 sec) 
Heartbeat CPU 0 instructions: 860000000 cycles: 1110858861 heartbeat IPC: 0.336353 cumulative IPC: 0.77345 (Simulation time: 2 hr 1 min 55 sec) 
Heartbeat CPU 0 instructions: 870000004 cycles: 1117648366 heartbeat IPC: 1.47286 cumulative IPC: 0.777699 (Simulation time: 2 hr 2 min 51 sec) 
Heartbeat CPU 0 instructions: 880000000 cycles: 1135492503 heartbeat IPC: 0.560408 cumulative IPC: 0.774284 (Simulation time: 2 hr 4 min 31 sec) 
Heartbeat CPU 0 instructions: 890000000 cycles: 1142650299 heartbeat IPC: 1.39708 cumulative IPC: 0.778186 (Simulation time: 2 hr 5 min 33 sec) 
Heartbeat CPU 0 instructions: 900000003 cycles: 1155842494 heartbeat IPC: 0.758024 cumulative IPC: 0.777956 (Simulation time: 2 hr 7 min 4 sec) 
Heartbeat CPU 0 instructions: 910000002 cycles: 1162533700 heartbeat IPC: 1.4945 cumulative IPC: 0.782081 (Simulation time: 2 hr 8 min 5 sec) 
Heartbeat CPU 0 instructions: 920000004 cycles: 1175613480 heartbeat IPC: 0.764539 cumulative IPC: 0.781886 (Simulation time: 2 hr 9 min 39 sec) 
Heartbeat CPU 0 instructions: 930000002 cycles: 1182081962 heartbeat IPC: 1.54596 cumulative IPC: 0.786068 (Simulation time: 2 hr 10 min 40 sec) 
Heartbeat CPU 0 instructions: 940000004 cycles: 1195131658 heartbeat IPC: 0.766302 cumulative IPC: 0.785852 (Simulation time: 2 hr 12 min 15 sec) 
Heartbeat CPU 0 instructions: 950000000 cycles: 1202168370 heartbeat IPC: 1.42112 cumulative IPC: 0.789571 (Simulation time: 2 hr 13 min 21 sec) 
Heartbeat CPU 0 instructions: 960000001 cycles: 1217237045 heartbeat IPC: 0.663628 cumulative IPC: 0.788012 (Simulation time: 2 hr 15 min 3 sec) 
Heartbeat CPU 0 instructions: 970000002 cycles: 1226420408 heartbeat IPC: 1.08893 cumulative IPC: 0.790265 (Simulation time: 2 hr 16 min 12 sec) 
Heartbeat CPU 0 instructions: 980000001 cycles: 1235610734 heartbeat IPC: 1.0881 cumulative IPC: 0.792481 (Simulation time: 2 hr 17 min 26 sec) 
Heartbeat CPU 0 instructions: 990000001 cycles: 1244849348 heartbeat IPC: 1.08241 cumulative IPC: 0.794633 (Simulation time: 2 hr 18 min 41 sec) 
Heartbeat CPU 0 instructions: 1000000003 cycles: 1267424830 heartbeat IPC: 0.442959 cumulative IPC: 0.788368 (Simulation time: 2 hr 21 min 1 sec) 
Finished CPU 0 instructions: 1000000002 cycles: 1269342407 cumulative IPC: 0.787809 (Simulation time: 2 hr 21 min 15 sec) 

ChampSim completed all CPUs

Region of Interest Statistics

CPU 0 cumulative IPC: 0.787809 instructions: 1000000002 cycles: 1269342407
cpu0_DTLB TOTAL     ACCESS:  204952396  HIT:  204031929  MISS:     920467
cpu0_DTLB LOAD      ACCESS:  169621538  HIT:  168974562  MISS:     646976
cpu0_DTLB RFO       ACCESS:   35330858  HIT:   35057367  MISS:     273491
cpu0_DTLB PREFETCH  ACCESS:          0  HIT:          0  MISS:          0
cpu0_DTLB WRITEBACK ACCESS:          0  HIT:          0  MISS:          0
cpu0_DTLB TRANSLATION ACCESS:          0  HIT:          0  MISS:          0
cpu0_DTLB PREFETCH  REQUESTED:          0  ISSUED:          0  USEFUL:          0  USELESS:          0
cpu0_DTLB AVERAGE MISS LATENCY: 30.3058 cycles
cpu0_ITLB TOTAL     ACCESS:   42060792  HIT:   42060287  MISS:        505
cpu0_ITLB LOAD      ACCESS:   42060792  HIT:   42060287  MISS:        505
cpu0_ITLB RFO       ACCESS:          0  HIT:          0  MISS:          0
cpu0_ITLB PREFETCH  ACCESS:          0  HIT:          0  MISS:          0
cpu0_ITLB WRITEBACK ACCESS:          0  HIT:          0  MISS:          0
cpu0_ITLB TRANSLATION ACCESS:          0  HIT:          0  MISS:          0
cpu0_ITLB PREFETCH  REQUESTED:          0  ISSUED:          0  USEFUL:          0  USELESS:          0
cpu0_ITLB AVERAGE MISS LATENCY: 300.287 cycles
cpu0_L1I TOTAL     ACCESS:   41822382  HIT:   41179682  MISS:     642700
cpu0_L1I LOAD      ACCESS:   41822382  HIT:   41179682  MISS:     642700
cpu0_L1I RFO       ACCESS:          0  HIT:          0  MISS:          0
cpu0_L1I PREFETCH  ACCESS:          0  HIT:          0  MISS:          0
cpu0_L1I WRITEBACK ACCESS:          0  HIT:          0  MISS:          0
cpu0_L1I TRANSLATION ACCESS:          0  HIT:          0  MISS:          0
cpu0_L1I PREFETCH  REQUESTED:          0  ISSUED:          0  USEFUL:          0  USELESS:          0
cpu0_L1I AVERAGE MISS LATENCY: 30.7646 cycles
cpu0_STLB TOTAL     ACCESS:     920972  HIT:     863305  MISS:      57667
cpu0_STLB LOAD      ACCESS:     647481  HIT:     605504  MISS:      41977
cpu0_STLB RFO       ACCESS:     273491  HIT:     257801  MISS:      15690
cpu0_STLB PREFETCH  ACCESS:          0  HIT:          0  MISS:          0
cpu0_STLB WRITEBACK ACCESS:          0  HIT:          0  MISS:          0
cpu0_STLB TRANSLATION ACCESS:          0  HIT:          0  MISS:          0
cpu0_STLB PREFETCH  REQUESTED:          0  ISSUED:          0  USEFUL:          0  USELESS:          0
cpu0_STLB AVERAGE MISS LATENCY: 339.828 cycles
cpu0_L1D TOTAL     ACCESS:  372130881  HIT:  358999504  MISS:   13131377
cpu0_L1D LOAD      ACCESS:  169356143  HIT:  164103108  MISS:    5253035
cpu0_L1D RFO       ACCESS:   59394314  HIT:   55743534  MISS:    3650780
cpu0_L1D PREFETCH  ACCESS:  143328396  HIT:  139111423  MISS:    4216973
cpu0_L1D WRITEBACK ACCESS:          0  HIT:          0  MISS:          0
cpu0_L1D TRANSLATION ACCESS:      52028  HIT:      41439  MISS:      10589
cpu0_L1D PREFETCH  REQUESTED:  174056139  ISSUED:  158289319  USEFUL:    6352168  USELESS:     651745
cpu0_L1D AVERAGE MISS LATENCY: 197.807 cycles
cpu0_L2C TOTAL     ACCESS:   21601497  HIT:   14774118  MISS:    6827379
cpu0_L2C LOAD      ACCESS:    3108970  HIT:    2255560  MISS:     853410
cpu0_L2C RFO       ACCESS:    3641746  HIT:    2064631  MISS:    1577115
cpu0_L2C PREFETCH  ACCESS:    9363464  HIT:    4973922  MISS:    4389542
cpu0_L2C WRITEBACK ACCESS:    5476728  HIT:    5471060  MISS:       5668
cpu0_L2C TRANSLATION ACCESS:      10589  HIT:       8945  MISS:       1644
cpu0_L2C PREFETCH  REQUESTED:    2914023  ISSUED:    2544323  USEFUL:      84138  USELESS:      46339
cpu0_L2C AVERAGE MISS LATENCY: 669.01 cycles
LLC TOTAL     ACCESS:    9875515  HIT:    4870670  MISS:    5004845
LLC LOAD      ACCESS:     853394  HIT:     340382  MISS:     513012
LLC RFO       ACCESS:    1576882  HIT:     433011  MISS:    1143871
LLC PREFETCH  ACCESS:    4452524  HIT:    1122795  MISS:    3329729
LLC WRITEBACK ACCESS:    2991071  HIT:    2973244  MISS:      17827
LLC TRANSLATION ACCESS:       1644  HIT:       1238  MISS:        406
LLC PREFETCH  REQUESTED:          0  ISSUED:          0  USEFUL:          0  USELESS:          0
LLC AVERAGE MISS LATENCY: 888.761 cycles

DRAM Statistics
 CHANNEL 0
 RQ ROW_BUFFER_HIT:     413732  ROW_BUFFER_MISS:    4569781
 DBUS AVG_CONGESTED_CYCLE:    3.97292
 WQ ROW_BUFFER_HIT:      77884  ROW_BUFFER_MISS:    2093165  FULL:          0


CPU 0 Branch Prediction Accuracy: 97.7475% MPKI: 2.39832 Average ROB Occupancy at Mispredict: 94.4457
Branch type MPKI
BRANCH_DIRECT_JUMP: 0.0004
BRANCH_INDIRECT: 1.7e-05
BRANCH_CONDITIONAL: 2.39456
BRANCH_DIRECT_CALL: 0.002517
BRANCH_INDIRECT_CALL: 0
BRANCH_RETURN: 0.000827

