
*** ChampSim Multicore Out-of-Order Simulator ***

Warmup Instructions: 1000000
Simulation Instructions: 1000000000
Number of CPUs: 1
Off-chip DRAM Size: 4 GiB Channels: 1 Width: 64-bit Data Rate: 3200 MT/s

VirtualMemory physical capacity: 8588881920 num_ppages: 2096895
VirtualMemory page size: 4096 log2_page_size: 12

CPU 0 runs tracer/pin/traces/spec2k6/436.cactusADM-1804B.champsimtrace.xz
Basic BTB sets: 1024 ways: 8 indirect buffer size: 4096 RAS size: 64
cpu0_L1D next line prefetcher
cpu0_L2C IP-based stride prefetcher
WARNING: The extended signature CACHE::prefetch_line(ip, base_addr, pf_addr, fill_this_level, prefetch_metadata) is deprecated.
WARNING: Use CACHE::prefetch_line(pf_addr, fill_this_level, prefetch_metadata) instead.

Warmup complete CPU 0 instructions: 1000003 cycles: 504593 (Simulation time: 0 hr 0 min 5 sec) 

Heartbeat CPU 0 instructions: 10000000 cycles: 7187879 heartbeat IPC: 1.39123 cumulative IPC: 1.34664 (Simulation time: 0 hr 1 min 11 sec) 
Heartbeat CPU 0 instructions: 20000002 cycles: 20330522 heartbeat IPC: 0.760882 cumulative IPC: 0.958341 (Simulation time: 0 hr 2 min 56 sec) 
Heartbeat CPU 0 instructions: 30000003 cycles: 27733591 heartbeat IPC: 1.35079 cumulative IPC: 1.06504 (Simulation time: 0 hr 4 min 12 sec) 
Heartbeat CPU 0 instructions: 40000003 cycles: 35118559 heartbeat IPC: 1.3541 cumulative IPC: 1.12671 (Simulation time: 0 hr 5 min 35 sec) 
Heartbeat CPU 0 instructions: 50000003 cycles: 48124400 heartbeat IPC: 0.768885 cumulative IPC: 1.02898 (Simulation time: 0 hr 7 min 31 sec) 
Heartbeat CPU 0 instructions: 60000002 cycles: 55494380 heartbeat IPC: 1.35686 cumulative IPC: 1.07293 (Simulation time: 0 hr 8 min 48 sec) 
Heartbeat CPU 0 instructions: 70000002 cycles: 68603436 heartbeat IPC: 0.762831 cumulative IPC: 1.01323 (Simulation time: 0 hr 10 min 46 sec) 
Heartbeat CPU 0 instructions: 80000000 cycles: 75992517 heartbeat IPC: 1.35335 cumulative IPC: 1.04653 (Simulation time: 0 hr 12 min 22 sec) 
Heartbeat CPU 0 instructions: 90000003 cycles: 89070184 heartbeat IPC: 0.764663 cumulative IPC: 1.0049 (Simulation time: 0 hr 14 min 12 sec) 
Heartbeat CPU 0 instructions: 100000001 cycles: 96424284 heartbeat IPC: 1.35979 cumulative IPC: 1.03211 (Simulation time: 0 hr 15 min 29 sec) 
Heartbeat CPU 0 instructions: 110000000 cycles: 109549603 heartbeat IPC: 0.761886 cumulative IPC: 0.999587 (Simulation time: 0 hr 17 min 13 sec) 
Heartbeat CPU 0 instructions: 120000004 cycles: 116938059 heartbeat IPC: 1.35346 cumulative IPC: 1.02204 (Simulation time: 0 hr 18 min 32 sec) 
Heartbeat CPU 0 instructions: 130000002 cycles: 125612472 heartbeat IPC: 1.15282 cumulative IPC: 1.03111 (Simulation time: 0 hr 20 min 4 sec) 
Heartbeat CPU 0 instructions: 140000000 cycles: 137389672 heartbeat IPC: 0.849098 cumulative IPC: 1.01545 (Simulation time: 0 hr 21 min 50 sec) 
Heartbeat CPU 0 instructions: 150000004 cycles: 144759744 heartbeat IPC: 1.35684 cumulative IPC: 1.03289 (Simulation time: 0 hr 23 min 14 sec) 
Heartbeat CPU 0 instructions: 160000004 cycles: 157846222 heartbeat IPC: 0.764148 cumulative IPC: 1.01054 (Simulation time: 0 hr 25 min 10 sec) 
Heartbeat CPU 0 instructions: 170000001 cycles: 165212697 heartbeat IPC: 1.3575 cumulative IPC: 1.02606 (Simulation time: 0 hr 26 min 29 sec) 
Heartbeat CPU 0 instructions: 180000001 cycles: 178353733 heartbeat IPC: 0.760975 cumulative IPC: 1.00647 (Simulation time: 0 hr 28 min 26 sec) 
Heartbeat CPU 0 instructions: 190000002 cycles: 185785423 heartbeat IPC: 1.34559 cumulative IPC: 1.02007 (Simulation time: 0 hr 29 min 55 sec) 
Heartbeat CPU 0 instructions: 200000004 cycles: 198909416 heartbeat IPC: 0.761963 cumulative IPC: 1.003 (Simulation time: 0 hr 31 min 57 sec) 
Heartbeat CPU 0 instructions: 210000000 cycles: 206303861 heartbeat IPC: 1.35237 cumulative IPC: 1.01555 (Simulation time: 0 hr 33 min 22 sec) 
Heartbeat CPU 0 instructions: 220000002 cycles: 216255243 heartbeat IPC: 1.00489 cumulative IPC: 1.01506 (Simulation time: 0 hr 35 min 7 sec) 
Heartbeat CPU 0 instructions: 230000000 cycles: 226721407 heartbeat IPC: 0.95546 cumulative IPC: 1.0123 (Simulation time: 0 hr 36 min 58 sec) 
Heartbeat CPU 0 instructions: 240000002 cycles: 234079557 heartbeat IPC: 1.35904 cumulative IPC: 1.02323 (Simulation time: 0 hr 38 min 25 sec) 
Heartbeat CPU 0 instructions: 250000002 cycles: 247138082 heartbeat IPC: 0.765783 cumulative IPC: 1.0096 (Simulation time: 0 hr 40 min 22 sec) 
Heartbeat CPU 0 instructions: 260000001 cycles: 254538316 heartbeat IPC: 1.35131 cumulative IPC: 1.01955 (Simulation time: 0 hr 41 min 44 sec) 
Heartbeat CPU 0 instructions: 270000003 cycles: 267675336 heartbeat IPC: 0.761208 cumulative IPC: 1.00685 (Simulation time: 0 hr 43 min 43 sec) 
Heartbeat CPU 0 instructions: 280000001 cycles: 275076725 heartbeat IPC: 1.3511 cumulative IPC: 1.01613 (Simulation time: 0 hr 45 min 21 sec) 
Heartbeat CPU 0 instructions: 290000000 cycles: 288183964 heartbeat IPC: 0.762937 cumulative IPC: 1.00459 (Simulation time: 0 hr 47 min 17 sec) 
Heartbeat CPU 0 instructions: 300000004 cycles: 295601208 heartbeat IPC: 1.34821 cumulative IPC: 1.01323 (Simulation time: 0 hr 48 min 39 sec) 
Heartbeat CPU 0 instructions: 310000001 cycles: 307119024 heartbeat IPC: 0.86822 cumulative IPC: 1.00778 (Simulation time: 0 hr 50 min 24 sec) 
Heartbeat CPU 0 instructions: 320000002 cycles: 316117313 heartbeat IPC: 1.11132 cumulative IPC: 1.01073 (Simulation time: 0 hr 51 min 58 sec) 
Heartbeat CPU 0 instructions: 330000003 cycles: 323538925 heartbeat IPC: 1.34742 cumulative IPC: 1.01847 (Simulation time: 0 hr 53 min 25 sec) 
Heartbeat CPU 0 instructions: 340000003 cycles: 336691456 heartbeat IPC: 0.76031 cumulative IPC: 1.00837 (Simulation time: 0 hr 55 min 20 sec) 
Heartbeat CPU 0 instructions: 350000002 cycles: 344095407 heartbeat IPC: 1.35063 cumulative IPC: 1.01574 (Simulation time: 0 hr 56 min 45 sec) 
Heartbeat CPU 0 instructions: 360000002 cycles: 357201814 heartbeat IPC: 0.762986 cumulative IPC: 1.00646 (Simulation time: 0 hr 58 min 43 sec) 
Heartbeat CPU 0 instructions: 370000001 cycles: 364616973 heartbeat IPC: 1.34859 cumulative IPC: 1.01342 (Simulation time: 1 hr 0 min 4 sec) 
Heartbeat CPU 0 instructions: 380000004 cycles: 377765388 heartbeat IPC: 0.760548 cumulative IPC: 1.00461 (Simulation time: 1 hr 1 min 56 sec) 
Heartbeat CPU 0 instructions: 390000003 cycles: 385155027 heartbeat IPC: 1.35325 cumulative IPC: 1.01131 (Simulation time: 1 hr 3 min 15 sec) 
Heartbeat CPU 0 instructions: 400000003 cycles: 398191348 heartbeat IPC: 0.767088 cumulative IPC: 1.0033 (Simulation time: 1 hr 5 min 5 sec) 
Heartbeat CPU 0 instructions: 410000003 cycles: 405688679 heartbeat IPC: 1.33381 cumulative IPC: 1.00942 (Simulation time: 1 hr 6 min 25 sec) 
Heartbeat CPU 0 instructions: 420000001 cycles: 413122266 heartbeat IPC: 1.34525 cumulative IPC: 1.01547 (Simulation time: 1 hr 7 min 49 sec) 
Heartbeat CPU 0 instructions: 430000003 cycles: 426292067 heartbeat IPC: 0.759313 cumulative IPC: 1.00754 (Simulation time: 1 hr 9 min 39 sec) 
Heartbeat CPU 0 instructions: 440000003 cycles: 433768198 heartbeat IPC: 1.33759 cumulative IPC: 1.01324 (Simulation time: 1 hr 11 min 1 sec) 
Heartbeat CPU 0 instructions: 450000002 cycles: 446891297 heartbeat IPC: 0.762015 cumulative IPC: 1.00585 (Simulation time: 1 hr 12 min 49 sec) 
Heartbeat CPU 0 instructions: 460000000 cycles: 454313591 heartbeat IPC: 1.34729 cumulative IPC: 1.01144 (Simulation time: 1 hr 14 min 8 sec) 
Heartbeat CPU 0 instructions: 470000002 cycles: 467447327 heartbeat IPC: 0.761398 cumulative IPC: 1.00441 (Simulation time: 1 hr 15 min 55 sec) 
Heartbeat CPU 0 instructions: 480000001 cycles: 474867141 heartbeat IPC: 1.34774 cumulative IPC: 1.00978 (Simulation time: 1 hr 17 min 10 sec) 
Heartbeat CPU 0 instructions: 490000002 cycles: 487952415 heartbeat IPC: 0.764218 cumulative IPC: 1.00318 (Simulation time: 1 hr 18 min 53 sec) 
Heartbeat CPU 0 instructions: 500000003 cycles: 495324487 heartbeat IPC: 1.35647 cumulative IPC: 1.00845 (Simulation time: 1 hr 20 min 5 sec) 
Heartbeat CPU 0 instructions: 510000000 cycles: 502692354 heartbeat IPC: 1.35724 cumulative IPC: 1.01357 (Simulation time: 1 hr 21 min 15 sec) 
Heartbeat CPU 0 instructions: 520000004 cycles: 515751945 heartbeat IPC: 0.765721 cumulative IPC: 1.00728 (Simulation time: 1 hr 22 min 44 sec) 
Heartbeat CPU 0 instructions: 530000004 cycles: 523161852 heartbeat IPC: 1.34954 cumulative IPC: 1.01214 (Simulation time: 1 hr 23 min 47 sec) 
Heartbeat CPU 0 instructions: 540000004 cycles: 536311779 heartbeat IPC: 0.76046 cumulative IPC: 1.00596 (Simulation time: 1 hr 25 min 10 sec) 
Heartbeat CPU 0 instructions: 550000001 cycles: 543757783 heartbeat IPC: 1.343 cumulative IPC: 1.01058 (Simulation time: 1 hr 26 min 13 sec) 
Heartbeat CPU 0 instructions: 560000000 cycles: 556924437 heartbeat IPC: 0.759494 cumulative IPC: 1.00464 (Simulation time: 1 hr 27 min 38 sec) 
Heartbeat CPU 0 instructions: 570000000 cycles: 564354490 heartbeat IPC: 1.34589 cumulative IPC: 1.00913 (Simulation time: 1 hr 28 min 39 sec) 
Heartbeat CPU 0 instructions: 580000003 cycles: 577552169 heartbeat IPC: 0.757709 cumulative IPC: 1.00338 (Simulation time: 1 hr 30 min 1 sec) 
Heartbeat CPU 0 instructions: 590000000 cycles: 584973164 heartbeat IPC: 1.34753 cumulative IPC: 1.00775 (Simulation time: 1 hr 31 min 1 sec) 
Heartbeat CPU 0 instructions: 600000003 cycles: 592400337 heartbeat IPC: 1.34641 cumulative IPC: 1.012 (Simulation time: 1 hr 32 min 2 sec) 
Heartbeat CPU 0 instructions: 610000002 cycles: 605531742 heartbeat IPC: 0.761533 cumulative IPC: 1.00657 (Simulation time: 1 hr 33 min 23 sec) 
Heartbeat CPU 0 instructions: 620000001 cycles: 612944315 heartbeat IPC: 1.34906 cumulative IPC: 1.01071 (Simulation time: 1 hr 34 min 23 sec) 
Heartbeat CPU 0 instructions: 630000002 cycles: 626093599 heartbeat IPC: 0.760498 cumulative IPC: 1.00545 (Simulation time: 1 hr 35 min 43 sec) 
Heartbeat CPU 0 instructions: 640000000 cycles: 633492744 heartbeat IPC: 1.35151 cumulative IPC: 1.0095 (Simulation time: 1 hr 36 min 43 sec) 
Heartbeat CPU 0 instructions: 650000001 cycles: 646651809 heartbeat IPC: 0.759932 cumulative IPC: 1.00442 (Simulation time: 1 hr 38 min 4 sec) 
Heartbeat CPU 0 instructions: 660000002 cycles: 654045574 heartbeat IPC: 1.35249 cumulative IPC: 1.00835 (Simulation time: 1 hr 39 min 3 sec) 
Heartbeat CPU 0 instructions: 670000000 cycles: 667163229 heartbeat IPC: 0.762331 cumulative IPC: 1.00351 (Simulation time: 1 hr 40 min 24 sec) 
Heartbeat CPU 0 instructions: 680000003 cycles: 674576953 heartbeat IPC: 1.34885 cumulative IPC: 1.00731 (Simulation time: 1 hr 41 min 24 sec) 
Heartbeat CPU 0 instructions: 690000000 cycles: 681992720 heartbeat IPC: 1.34848 cumulative IPC: 1.01102 (Simulation time: 1 hr 42 min 24 sec) 
Heartbeat CPU 0 instructions: 700000001 cycles: 695003244 heartbeat IPC: 0.768609 cumulative IPC: 1.00648 (Simulation time: 1 hr 43 min 44 sec) 
Heartbeat CPU 0 instructions: 710000004 cycles: 702375038 heartbeat IPC: 1.35652 cumulative IPC: 1.01016 (Simulation time: 1 hr 44 min 43 sec) 
Heartbeat CPU 0 instructions: 720000001 cycles: 715484611 heartbeat IPC: 0.762801 cumulative IPC: 1.00562 (Simulation time: 1 hr 46 min 4 sec) 
Heartbeat CPU 0 instructions: 730000000 cycles: 722875280 heartbeat IPC: 1.35306 cumulative IPC: 1.00918 (Simulation time: 1 hr 47 min 4 sec) 
Heartbeat CPU 0 instructions: 740000000 cycles: 736016360 heartbeat IPC: 0.760972 cumulative IPC: 1.00474 (Simulation time: 1 hr 48 min 24 sec) 
Heartbeat CPU 0 instructions: 750000003 cycles: 743346427 heartbeat IPC: 1.36424 cumulative IPC: 1.00829 (Simulation time: 1 hr 49 min 23 sec) 
Heartbeat CPU 0 instructions: 760000003 cycles: 756382618 heartbeat IPC: 0.767095 cumulative IPC: 1.00413 (Simulation time: 1 hr 50 min 43 sec) 
Heartbeat CPU 0 instructions: 770000004 cycles: 763756569 heartbeat IPC: 1.35613 cumulative IPC: 1.00753 (Simulation time: 1 hr 51 min 43 sec) 
Heartbeat CPU 0 instructions: 780000003 cycles: 771126181 heartbeat IPC: 1.35692 cumulative IPC: 1.01087 (Simulation time: 1 hr 52 min 43 sec) 
Heartbeat CPU 0 instructions: 790000003 cycles: 784279289 heartbeat IPC: 0.760277 cumulative IPC: 1.00667 (Simulation time: 1 hr 54 min 3 sec) 
Heartbeat CPU 0 instructions: 800000001 cycles: 791657908 heartbeat IPC: 1.35527 cumulative IPC: 1.00992 (Simulation time: 1 hr 55 min 3 sec) 
Heartbeat CPU 0 instructions: 810000001 cycles: 804772992 heartbeat IPC: 0.762481 cumulative IPC: 1.00588 (Simulation time: 1 hr 56 min 23 sec) 
Heartbeat CPU 0 instructions: 820000001 cycles: 812170090 heartbeat IPC: 1.35188 cumulative IPC: 1.00904 (Simulation time: 1 hr 57 min 23 sec) 
Heartbeat CPU 0 instructions: 830000003 cycles: 825173330 heartbeat IPC: 0.769039 cumulative IPC: 1.00525 (Simulation time: 1 hr 58 min 43 sec) 
Heartbeat CPU 0 instructions: 840000004 cycles: 832551499 heartbeat IPC: 1.35535 cumulative IPC: 1.00836 (Simulation time: 1 hr 59 min 43 sec) 
Heartbeat CPU 0 instructions: 850000000 cycles: 845631115 heartbeat IPC: 0.764548 cumulative IPC: 1.00458 (Simulation time: 2 hr 1 min 3 sec) 
Heartbeat CPU 0 instructions: 860000003 cycles: 853009786 heartbeat IPC: 1.35526 cumulative IPC: 1.00762 (Simulation time: 2 hr 2 min 3 sec) 
Heartbeat CPU 0 instructions: 870000001 cycles: 861173111 heartbeat IPC: 1.22499 cumulative IPC: 1.00968 (Simulation time: 2 hr 3 min 5 sec) 
Heartbeat CPU 0 instructions: 880000002 cycles: 873475412 heartbeat IPC: 0.812856 cumulative IPC: 1.00691 (Simulation time: 2 hr 4 min 23 sec) 
Heartbeat CPU 0 instructions: 890000000 cycles: 880848481 heartbeat IPC: 1.35629 cumulative IPC: 1.00983 (Simulation time: 2 hr 5 min 22 sec) 
Heartbeat CPU 0 instructions: 900000004 cycles: 893952832 heartbeat IPC: 0.763106 cumulative IPC: 1.00621 (Simulation time: 2 hr 6 min 43 sec) 
Heartbeat CPU 0 instructions: 910000000 cycles: 901330151 heartbeat IPC: 1.35551 cumulative IPC: 1.00907 (Simulation time: 2 hr 7 min 42 sec) 
Heartbeat CPU 0 instructions: 920000004 cycles: 914402356 heartbeat IPC: 0.764982 cumulative IPC: 1.00558 (Simulation time: 2 hr 9 min 2 sec) 
Heartbeat CPU 0 instructions: 930000004 cycles: 921807306 heartbeat IPC: 1.35045 cumulative IPC: 1.00835 (Simulation time: 2 hr 10 min 2 sec) 
Heartbeat CPU 0 instructions: 940000003 cycles: 934952164 heartbeat IPC: 0.760754 cumulative IPC: 1.00487 (Simulation time: 2 hr 11 min 22 sec) 
Heartbeat CPU 0 instructions: 950000001 cycles: 942367122 heartbeat IPC: 1.34863 cumulative IPC: 1.00758 (Simulation time: 2 hr 12 min 22 sec) 
Heartbeat CPU 0 instructions: 960000004 cycles: 951786790 heartbeat IPC: 1.06161 cumulative IPC: 1.00811 (Simulation time: 2 hr 13 min 29 sec) 
Heartbeat CPU 0 instructions: 970000002 cycles: 962806604 heartbeat IPC: 0.907456 cumulative IPC: 1.00696 (Simulation time: 2 hr 14 min 42 sec) 
Heartbeat CPU 0 instructions: 980000000 cycles: 970148116 heartbeat IPC: 1.36212 cumulative IPC: 1.00965 (Simulation time: 2 hr 15 min 41 sec) 
Heartbeat CPU 0 instructions: 990000001 cycles: 983221212 heartbeat IPC: 0.76493 cumulative IPC: 1.00639 (Simulation time: 2 hr 17 min 1 sec) 
Heartbeat CPU 0 instructions: 1000000003 cycles: 990591150 heartbeat IPC: 1.35686 cumulative IPC: 1.009 (Simulation time: 2 hr 18 min 1 sec) 
Finished CPU 0 instructions: 1000000002 cycles: 990820121 cumulative IPC: 1.00926 (Simulation time: 2 hr 18 min 7 sec) 

ChampSim completed all CPUs

Region of Interest Statistics

CPU 0 cumulative IPC: 1.00926 instructions: 1000000002 cycles: 990820121
cpu0_DTLB TOTAL     ACCESS:  323239698  HIT:  296445172  MISS:   26794526
cpu0_DTLB LOAD      ACCESS:  253783694  HIT:  234907365  MISS:   18876329
cpu0_DTLB RFO       ACCESS:   69456004  HIT:   61537807  MISS:    7918197
cpu0_DTLB PREFETCH  ACCESS:          0  HIT:          0  MISS:          0
cpu0_DTLB WRITEBACK ACCESS:          0  HIT:          0  MISS:          0
cpu0_DTLB TRANSLATION ACCESS:          0  HIT:          0  MISS:          0
cpu0_DTLB PREFETCH  REQUESTED:          0  ISSUED:          0  USEFUL:          0  USELESS:          0
cpu0_DTLB AVERAGE MISS LATENCY: 13.906 cycles
cpu0_ITLB TOTAL     ACCESS:   13846708  HIT:   13846707  MISS:          1
cpu0_ITLB LOAD      ACCESS:   13846708  HIT:   13846707  MISS:          1
cpu0_ITLB RFO       ACCESS:          0  HIT:          0  MISS:          0
cpu0_ITLB PREFETCH  ACCESS:          0  HIT:          0  MISS:          0
cpu0_ITLB WRITEBACK ACCESS:          0  HIT:          0  MISS:          0
cpu0_ITLB TRANSLATION ACCESS:          0  HIT:          0  MISS:          0
cpu0_ITLB PREFETCH  REQUESTED:          0  ISSUED:          0  USEFUL:          0  USELESS:          0
cpu0_ITLB AVERAGE MISS LATENCY: 557 cycles
cpu0_L1I TOTAL     ACCESS:   94999638  HIT:   94999568  MISS:         70
cpu0_L1I LOAD      ACCESS:   94999638  HIT:   94999568  MISS:         70
cpu0_L1I RFO       ACCESS:          0  HIT:          0  MISS:          0
cpu0_L1I PREFETCH  ACCESS:          0  HIT:          0  MISS:          0
cpu0_L1I WRITEBACK ACCESS:          0  HIT:          0  MISS:          0
cpu0_L1I TRANSLATION ACCESS:          0  HIT:          0  MISS:          0
cpu0_L1I PREFETCH  REQUESTED:          0  ISSUED:          0  USEFUL:          0  USELESS:          0
cpu0_L1I AVERAGE MISS LATENCY: 687.586 cycles
cpu0_STLB TOTAL     ACCESS:   26794527  HIT:   15355787  MISS:   11438740
cpu0_STLB LOAD      ACCESS:   18876330  HIT:   11801622  MISS:    7074708
cpu0_STLB RFO       ACCESS:    7918197  HIT:    3554165  MISS:    4364032
cpu0_STLB PREFETCH  ACCESS:          0  HIT:          0  MISS:          0
cpu0_STLB WRITEBACK ACCESS:          0  HIT:          0  MISS:          0
cpu0_STLB TRANSLATION ACCESS:          0  HIT:          0  MISS:          0
cpu0_STLB PREFETCH  REQUESTED:          0  ISSUED:          0  USEFUL:          0  USELESS:          0
cpu0_STLB AVERAGE MISS LATENCY: 10.9245 cycles
cpu0_L1D TOTAL     ACCESS:  823382568  HIT:  814359133  MISS:    9023435
cpu0_L1D LOAD      ACCESS:  351989036  HIT:  351019009  MISS:     970027
cpu0_L1D RFO       ACCESS:  150866026  HIT:  149341223  MISS:    1524803
cpu0_L1D PREFETCH  ACCESS:  309088835  HIT:  302730710  MISS:    6358125
cpu0_L1D WRITEBACK ACCESS:          0  HIT:          0  MISS:          0
cpu0_L1D TRANSLATION ACCESS:   11438671  HIT:   11268191  MISS:     170480
cpu0_L1D PREFETCH  REQUESTED:  352033934  ISSUED:  309825903  USEFUL:    6384553  USELESS:     185705
cpu0_L1D AVERAGE MISS LATENCY: 406.394 cycles
cpu0_L2C TOTAL     ACCESS:   10789495  HIT:    5493068  MISS:    5296427
cpu0_L2C LOAD      ACCESS:     758392  HIT:     490799  MISS:     267593
cpu0_L2C RFO       ACCESS:    1524100  HIT:      19822  MISS:    1504278
cpu0_L2C PREFETCH  ACCESS:    6749443  HIT:    3232383  MISS:    3517060
cpu0_L2C WRITEBACK ACCESS:    1587080  HIT:    1584269  MISS:       2811
cpu0_L2C TRANSLATION ACCESS:     170480  HIT:     165795  MISS:       4685
cpu0_L2C PREFETCH  REQUESTED:     202838  ISSUED:     202751  USEFUL:      20964  USELESS:      33951
cpu0_L2C AVERAGE MISS LATENCY: 723.635 cycles
LLC TOTAL     ACCESS:    6823225  HIT:    1537139  MISS:    5286086
LLC LOAD      ACCESS:     267593  HIT:       3672  MISS:     263921
LLC RFO       ACCESS:    1504278  HIT:       6759  MISS:    1497519
LLC PREFETCH  ACCESS:    3539442  HIT:      29406  MISS:    3510036
LLC WRITEBACK ACCESS:    1507227  HIT:    1493698  MISS:      13529
LLC TRANSLATION ACCESS:       4685  HIT:       3604  MISS:       1081
LLC PREFETCH  REQUESTED:          0  ISSUED:          0  USEFUL:          0  USELESS:          0
LLC AVERAGE MISS LATENCY: 703.564 cycles

DRAM Statistics
 CHANNEL 0
 RQ ROW_BUFFER_HIT:      11564  ROW_BUFFER_MISS:    5260974
 DBUS AVG_CONGESTED_CYCLE:    3.96857
 WQ ROW_BUFFER_HIT:     112526  ROW_BUFFER_MISS:    1387662  FULL:          0


CPU 0 Branch Prediction Accuracy: 99.1659% MPKI: 0.010731 Average ROB Occupancy at Mispredict: 127.932
Branch type MPKI
BRANCH_DIRECT_JUMP: 1e-06
BRANCH_INDIRECT: 0
BRANCH_CONDITIONAL: 0.01073
BRANCH_DIRECT_CALL: 0
BRANCH_INDIRECT_CALL: 0
BRANCH_RETURN: 0

