
*** ChampSim Multicore Out-of-Order Simulator ***

Warmup Instructions: 200000000
Simulation Instructions: 1000000000
Number of CPUs: 1
Off-chip DRAM Size: 4 GiB Channels: 1 Width: 64-bit Data Rate: 3200 MT/s

VirtualMemory physical capacity: 8588881920 num_ppages: 2096895
VirtualMemory page size: 4096 log2_page_size: 12

CPU 0 runs tracer/pin/traces/sssp-twitter-427B.champsim.xz
Basic BTB sets: 1024 ways: 8 indirect buffer size: 4096 RAS size: 64
cpu0_L1D next line prefetcher
cpu0_L2C IP-based stride prefetcher
WARNING: The extended signature CACHE::prefetch_line(ip, base_addr, pf_addr, fill_this_level, prefetch_metadata) is deprecated.
WARNING: Use CACHE::prefetch_line(pf_addr, fill_this_level, prefetch_metadata) instead.
Heartbeat CPU 0 instructions: 10000003 cycles: 3688327 heartbeat IPC: 2.71126 cumulative IPC: 2.71126 (Simulation time: 0 hr 0 min 33 sec) 
Heartbeat CPU 0 instructions: 20000000 cycles: 7372174 heartbeat IPC: 2.71455 cumulative IPC: 2.7129 (Simulation time: 0 hr 1 min 7 sec) 
Heartbeat CPU 0 instructions: 30000003 cycles: 11077778 heartbeat IPC: 2.69862 cumulative IPC: 2.70812 (Simulation time: 0 hr 1 min 40 sec) 
Heartbeat CPU 0 instructions: 40000001 cycles: 14723088 heartbeat IPC: 2.74325 cumulative IPC: 2.71682 (Simulation time: 0 hr 2 min 13 sec) 
Heartbeat CPU 0 instructions: 50000003 cycles: 18403680 heartbeat IPC: 2.71695 cumulative IPC: 2.71685 (Simulation time: 0 hr 2 min 46 sec) 
Heartbeat CPU 0 instructions: 60000003 cycles: 22034478 heartbeat IPC: 2.75422 cumulative IPC: 2.72301 (Simulation time: 0 hr 3 min 19 sec) 
Heartbeat CPU 0 instructions: 70000000 cycles: 25745050 heartbeat IPC: 2.695 cumulative IPC: 2.71897 (Simulation time: 0 hr 3 min 52 sec) 
Heartbeat CPU 0 instructions: 80000004 cycles: 29440054 heartbeat IPC: 2.70636 cumulative IPC: 2.71739 (Simulation time: 0 hr 4 min 25 sec) 
Heartbeat CPU 0 instructions: 90000001 cycles: 32826371 heartbeat IPC: 2.95306 cumulative IPC: 2.7417 (Simulation time: 0 hr 4 min 54 sec) 
Heartbeat CPU 0 instructions: 100000002 cycles: 36146879 heartbeat IPC: 3.01159 cumulative IPC: 2.76649 (Simulation time: 0 hr 5 min 24 sec) 
Heartbeat CPU 0 instructions: 110000002 cycles: 39757137 heartbeat IPC: 2.76989 cumulative IPC: 2.7668 (Simulation time: 0 hr 5 min 57 sec) 
Heartbeat CPU 0 instructions: 120000004 cycles: 43446871 heartbeat IPC: 2.71022 cumulative IPC: 2.76199 (Simulation time: 0 hr 6 min 30 sec) 
Heartbeat CPU 0 instructions: 130000004 cycles: 47122898 heartbeat IPC: 2.72033 cumulative IPC: 2.75874 (Simulation time: 0 hr 7 min 3 sec) 
Heartbeat CPU 0 instructions: 140000001 cycles: 50781133 heartbeat IPC: 2.73356 cumulative IPC: 2.75693 (Simulation time: 0 hr 7 min 37 sec) 
Heartbeat CPU 0 instructions: 150000001 cycles: 54469851 heartbeat IPC: 2.71097 cumulative IPC: 2.75382 (Simulation time: 0 hr 8 min 10 sec) 
Heartbeat CPU 0 instructions: 160000000 cycles: 58150785 heartbeat IPC: 2.7167 cumulative IPC: 2.75147 (Simulation time: 0 hr 8 min 43 sec) 
Heartbeat CPU 0 instructions: 170000002 cycles: 61824856 heartbeat IPC: 2.72178 cumulative IPC: 2.7497 (Simulation time: 0 hr 9 min 16 sec) 
Heartbeat CPU 0 instructions: 180000000 cycles: 65498877 heartbeat IPC: 2.72181 cumulative IPC: 2.74814 (Simulation time: 0 hr 9 min 50 sec) 
Heartbeat CPU 0 instructions: 190000002 cycles: 69179740 heartbeat IPC: 2.71675 cumulative IPC: 2.74647 (Simulation time: 0 hr 10 min 23 sec) 
Heartbeat CPU 0 instructions: 200000001 cycles: 72861893 heartbeat IPC: 2.7158 cumulative IPC: 2.74492 (Simulation time: 0 hr 10 min 56 sec) 

Warmup complete CPU 0 instructions: 200000001 cycles: 72861893 (Simulation time: 0 hr 10 min 56 sec) 

Heartbeat CPU 0 instructions: 210000002 cycles: 160019114 heartbeat IPC: 0.114735 cumulative IPC: 0.114735 (Simulation time: 0 hr 15 min 23 sec) 
Heartbeat CPU 0 instructions: 220000004 cycles: 247129486 heartbeat IPC: 0.114797 cumulative IPC: 0.114766 (Simulation time: 0 hr 19 min 52 sec) 
Heartbeat CPU 0 instructions: 230000004 cycles: 341634116 heartbeat IPC: 0.105815 cumulative IPC: 0.111619 (Simulation time: 0 hr 24 min 37 sec) 
Heartbeat CPU 0 instructions: 240000003 cycles: 432041159 heartbeat IPC: 0.110611 cumulative IPC: 0.111365 (Simulation time: 0 hr 29 min 10 sec) 
Heartbeat CPU 0 instructions: 250000000 cycles: 521519280 heartbeat IPC: 0.111759 cumulative IPC: 0.111444 (Simulation time: 0 hr 33 min 40 sec) 
Heartbeat CPU 0 instructions: 260000001 cycles: 607500269 heartbeat IPC: 0.116305 cumulative IPC: 0.112225 (Simulation time: 0 hr 38 min 7 sec) 
Heartbeat CPU 0 instructions: 270000001 cycles: 703575724 heartbeat IPC: 0.104085 cumulative IPC: 0.110985 (Simulation time: 0 hr 42 min 33 sec) 
Heartbeat CPU 0 instructions: 280000000 cycles: 781873609 heartbeat IPC: 0.127717 cumulative IPC: 0.112833 (Simulation time: 0 hr 46 min 36 sec) 
Heartbeat CPU 0 instructions: 290000003 cycles: 881607040 heartbeat IPC: 0.100267 cumulative IPC: 0.111284 (Simulation time: 0 hr 51 min 43 sec) 
Heartbeat CPU 0 instructions: 300000000 cycles: 972197291 heartbeat IPC: 0.110387 cumulative IPC: 0.111193 (Simulation time: 0 hr 56 min 16 sec) 
Heartbeat CPU 0 instructions: 310000000 cycles: 1063079159 heartbeat IPC: 0.110033 cumulative IPC: 0.111087 (Simulation time: 1 hr 0 min 30 sec) 
Heartbeat CPU 0 instructions: 320000003 cycles: 1151965171 heartbeat IPC: 0.112504 cumulative IPC: 0.111203 (Simulation time: 1 hr 5 min 1 sec) 
Heartbeat CPU 0 instructions: 330000000 cycles: 1238163685 heartbeat IPC: 0.116011 cumulative IPC: 0.111559 (Simulation time: 1 hr 9 min 32 sec) 
Heartbeat CPU 0 instructions: 340000001 cycles: 1331635351 heartbeat IPC: 0.106984 cumulative IPC: 0.111219 (Simulation time: 1 hr 14 min 5 sec) 
Heartbeat CPU 0 instructions: 350000003 cycles: 1422134318 heartbeat IPC: 0.110499 cumulative IPC: 0.111171 (Simulation time: 1 hr 18 min 41 sec) 
Heartbeat CPU 0 instructions: 360000001 cycles: 1514403003 heartbeat IPC: 0.108379 cumulative IPC: 0.110992 (Simulation time: 1 hr 23 min 15 sec) 
Heartbeat CPU 0 instructions: 370000000 cycles: 1606270057 heartbeat IPC: 0.108853 cumulative IPC: 0.110864 (Simulation time: 1 hr 27 min 49 sec) 
Heartbeat CPU 0 instructions: 380000004 cycles: 1702976358 heartbeat IPC: 0.103406 cumulative IPC: 0.110422 (Simulation time: 1 hr 32 min 9 sec) 
Heartbeat CPU 0 instructions: 390000000 cycles: 1792170463 heartbeat IPC: 0.112115 cumulative IPC: 0.11051 (Simulation time: 1 hr 36 min 39 sec) 
Heartbeat CPU 0 instructions: 400000004 cycles: 1888678238 heartbeat IPC: 0.103619 cumulative IPC: 0.110143 (Simulation time: 1 hr 40 min 8 sec) 
Heartbeat CPU 0 instructions: 410000004 cycles: 1979453964 heartbeat IPC: 0.110162 cumulative IPC: 0.110144 (Simulation time: 1 hr 43 min 43 sec) 
Heartbeat CPU 0 instructions: 420000000 cycles: 2067730020 heartbeat IPC: 0.113281 cumulative IPC: 0.110283 (Simulation time: 1 hr 48 min 11 sec) 
Heartbeat CPU 0 instructions: 430000003 cycles: 2156511288 heartbeat IPC: 0.112636 cumulative IPC: 0.110383 (Simulation time: 1 hr 52 min 41 sec) 
Heartbeat CPU 0 instructions: 440000001 cycles: 2253757627 heartbeat IPC: 0.102832 cumulative IPC: 0.110047 (Simulation time: 1 hr 57 min 8 sec) 
Heartbeat CPU 0 instructions: 450000001 cycles: 2348230761 heartbeat IPC: 0.10585 cumulative IPC: 0.109872 (Simulation time: 2 hr 1 min 42 sec) 
Heartbeat CPU 0 instructions: 460000000 cycles: 2437437727 heartbeat IPC: 0.112099 cumulative IPC: 0.109956 (Simulation time: 2 hr 6 min 17 sec) 
Heartbeat CPU 0 instructions: 470000004 cycles: 2527927745 heartbeat IPC: 0.110509 cumulative IPC: 0.109977 (Simulation time: 2 hr 10 min 51 sec) 
Heartbeat CPU 0 instructions: 480000001 cycles: 2617033888 heartbeat IPC: 0.112226 cumulative IPC: 0.110055 (Simulation time: 2 hr 15 min 23 sec) 
Heartbeat CPU 0 instructions: 490000003 cycles: 2706582867 heartbeat IPC: 0.111671 cumulative IPC: 0.11011 (Simulation time: 2 hr 19 min 56 sec) 
Heartbeat CPU 0 instructions: 500000003 cycles: 2797114084 heartbeat IPC: 0.110459 cumulative IPC: 0.110122 (Simulation time: 2 hr 24 min 31 sec) 
Heartbeat CPU 0 instructions: 510000001 cycles: 2888328946 heartbeat IPC: 0.109631 cumulative IPC: 0.110106 (Simulation time: 2 hr 28 min 18 sec) 
Heartbeat CPU 0 instructions: 520000000 cycles: 3002532133 heartbeat IPC: 0.0875632 cumulative IPC: 0.109227 (Simulation time: 2 hr 31 min 42 sec) 
Heartbeat CPU 0 instructions: 530000004 cycles: 3095470830 heartbeat IPC: 0.107598 cumulative IPC: 0.109177 (Simulation time: 2 hr 36 min 16 sec) 
Heartbeat CPU 0 instructions: 540000001 cycles: 3185508728 heartbeat IPC: 0.111064 cumulative IPC: 0.109232 (Simulation time: 2 hr 40 min 52 sec) 
Heartbeat CPU 0 instructions: 550000002 cycles: 3276940094 heartbeat IPC: 0.109372 cumulative IPC: 0.109236 (Simulation time: 2 hr 45 min 25 sec) 
Heartbeat CPU 0 instructions: 560000001 cycles: 3363318167 heartbeat IPC: 0.11577 cumulative IPC: 0.109407 (Simulation time: 2 hr 48 min 42 sec) 
Heartbeat CPU 0 instructions: 570000000 cycles: 3463796590 heartbeat IPC: 0.0995238 cumulative IPC: 0.109114 (Simulation time: 2 hr 51 min 51 sec) 
Heartbeat CPU 0 instructions: 580000003 cycles: 3557062836 heartbeat IPC: 0.10722 cumulative IPC: 0.109064 (Simulation time: 2 hr 55 min 29 sec) 
Heartbeat CPU 0 instructions: 590000000 cycles: 3647739983 heartbeat IPC: 0.110281 cumulative IPC: 0.109095 (Simulation time: 3 hr 0 min 3 sec) 
Heartbeat CPU 0 instructions: 600000002 cycles: 3744023190 heartbeat IPC: 0.10386 cumulative IPC: 0.108957 (Simulation time: 3 hr 4 min 28 sec) 
Heartbeat CPU 0 instructions: 610000002 cycles: 3830424362 heartbeat IPC: 0.115739 cumulative IPC: 0.109113 (Simulation time: 3 hr 8 min 50 sec) 
Heartbeat CPU 0 instructions: 620000000 cycles: 3917414723 heartbeat IPC: 0.114955 cumulative IPC: 0.109245 (Simulation time: 3 hr 13 min 22 sec) 
Heartbeat CPU 0 instructions: 630000004 cycles: 4005667196 heartbeat IPC: 0.113311 cumulative IPC: 0.109337 (Simulation time: 3 hr 17 min 56 sec) 
Heartbeat CPU 0 instructions: 640000003 cycles: 4098988217 heartbeat IPC: 0.107157 cumulative IPC: 0.109286 (Simulation time: 3 hr 22 min 30 sec) 
Heartbeat CPU 0 instructions: 650000000 cycles: 4195745710 heartbeat IPC: 0.103351 cumulative IPC: 0.109147 (Simulation time: 3 hr 27 min 8 sec) 
Heartbeat CPU 0 instructions: 660000000 cycles: 4297519778 heartbeat IPC: 0.0982569 cumulative IPC: 0.108885 (Simulation time: 3 hr 30 min 34 sec) 
Heartbeat CPU 0 instructions: 670000002 cycles: 4406903706 heartbeat IPC: 0.0914211 cumulative IPC: 0.108444 (Simulation time: 3 hr 34 min 22 sec) 
Heartbeat CPU 0 instructions: 680000001 cycles: 4524417885 heartbeat IPC: 0.0850961 cumulative IPC: 0.107827 (Simulation time: 3 hr 38 min 48 sec) 
Heartbeat CPU 0 instructions: 690000000 cycles: 4615088374 heartbeat IPC: 0.110289 cumulative IPC: 0.107877 (Simulation time: 3 hr 43 min 21 sec) 
Heartbeat CPU 0 instructions: 700000000 cycles: 4698717741 heartbeat IPC: 0.119575 cumulative IPC: 0.108088 (Simulation time: 3 hr 47 min 43 sec) 
Heartbeat CPU 0 instructions: 710000003 cycles: 4785191684 heartbeat IPC: 0.115642 cumulative IPC: 0.108227 (Simulation time: 3 hr 52 min 5 sec) 
Heartbeat CPU 0 instructions: 720000001 cycles: 4875427107 heartbeat IPC: 0.110821 cumulative IPC: 0.108275 (Simulation time: 3 hr 56 min 40 sec) 
Heartbeat CPU 0 instructions: 730000001 cycles: 4966389183 heartbeat IPC: 0.109936 cumulative IPC: 0.108306 (Simulation time: 4 hr 1 min 10 sec) 
Heartbeat CPU 0 instructions: 740000000 cycles: 5044763594 heartbeat IPC: 0.127593 cumulative IPC: 0.10861 (Simulation time: 4 hr 3 min 59 sec) 
Heartbeat CPU 0 instructions: 750000000 cycles: 5133990092 heartbeat IPC: 0.112074 cumulative IPC: 0.108671 (Simulation time: 4 hr 6 min 39 sec) 
Heartbeat CPU 0 instructions: 760000002 cycles: 5231342531 heartbeat IPC: 0.10272 cumulative IPC: 0.108559 (Simulation time: 4 hr 10 min 37 sec) 
Heartbeat CPU 0 instructions: 770000003 cycles: 5322572153 heartbeat IPC: 0.109614 cumulative IPC: 0.108577 (Simulation time: 4 hr 15 min 15 sec) 
Heartbeat CPU 0 instructions: 780000002 cycles: 5414982838 heartbeat IPC: 0.108213 cumulative IPC: 0.108571 (Simulation time: 4 hr 19 min 51 sec) 
Heartbeat CPU 0 instructions: 790000003 cycles: 5503539739 heartbeat IPC: 0.112922 cumulative IPC: 0.108642 (Simulation time: 4 hr 24 min 23 sec) 
Heartbeat CPU 0 instructions: 800000002 cycles: 5604383603 heartbeat IPC: 0.0991632 cumulative IPC: 0.108469 (Simulation time: 4 hr 29 min 14 sec) 
Heartbeat CPU 0 instructions: 810000002 cycles: 5702184972 heartbeat IPC: 0.102248 cumulative IPC: 0.108361 (Simulation time: 4 hr 33 min 30 sec) 
Heartbeat CPU 0 instructions: 820000003 cycles: 5798466208 heartbeat IPC: 0.103862 cumulative IPC: 0.108286 (Simulation time: 4 hr 36 min 32 sec) 
Heartbeat CPU 0 instructions: 830000002 cycles: 5879664796 heartbeat IPC: 0.123155 cumulative IPC: 0.108493 (Simulation time: 4 hr 40 min 14 sec) 
Heartbeat CPU 0 instructions: 840000000 cycles: 5940973066 heartbeat IPC: 0.16311 cumulative IPC: 0.109064 (Simulation time: 4 hr 43 min 53 sec) 
Heartbeat CPU 0 instructions: 850000004 cycles: 6026858538 heartbeat IPC: 0.116434 cumulative IPC: 0.10917 (Simulation time: 4 hr 47 min 57 sec) 
Heartbeat CPU 0 instructions: 860000000 cycles: 6127771016 heartbeat IPC: 0.0990957 cumulative IPC: 0.109002 (Simulation time: 4 hr 52 min 32 sec) 
Heartbeat CPU 0 instructions: 870000002 cycles: 6216106651 heartbeat IPC: 0.113205 cumulative IPC: 0.109063 (Simulation time: 4 hr 57 min 3 sec) 
Heartbeat CPU 0 instructions: 880000000 cycles: 6310210374 heartbeat IPC: 0.106266 cumulative IPC: 0.109021 (Simulation time: 5 hr 1 min 26 sec) 
Heartbeat CPU 0 instructions: 890000002 cycles: 6402979235 heartbeat IPC: 0.107795 cumulative IPC: 0.109003 (Simulation time: 5 hr 5 min 37 sec) 
Heartbeat CPU 0 instructions: 900000001 cycles: 6490738202 heartbeat IPC: 0.113948 cumulative IPC: 0.10907 (Simulation time: 5 hr 9 min 15 sec) 
Heartbeat CPU 0 instructions: 910000003 cycles: 6582153704 heartbeat IPC: 0.109391 cumulative IPC: 0.109075 (Simulation time: 5 hr 11 min 53 sec) 
Heartbeat CPU 0 instructions: 920000000 cycles: 6674585249 heartbeat IPC: 0.108188 cumulative IPC: 0.109062 (Simulation time: 5 hr 15 min 3 sec) 
Heartbeat CPU 0 instructions: 930000000 cycles: 6764915982 heartbeat IPC: 0.110704 cumulative IPC: 0.109085 (Simulation time: 5 hr 19 min 38 sec) 
Heartbeat CPU 0 instructions: 940000001 cycles: 6856163643 heartbeat IPC: 0.109592 cumulative IPC: 0.109091 (Simulation time: 5 hr 24 min 8 sec) 
Heartbeat CPU 0 instructions: 950000000 cycles: 6949378009 heartbeat IPC: 0.10728 cumulative IPC: 0.109067 (Simulation time: 5 hr 28 min 52 sec) 
Heartbeat CPU 0 instructions: 960000001 cycles: 7039959738 heartbeat IPC: 0.110398 cumulative IPC: 0.109084 (Simulation time: 5 hr 33 min 33 sec) 
Heartbeat CPU 0 instructions: 970000001 cycles: 7130961115 heartbeat IPC: 0.109888 cumulative IPC: 0.109095 (Simulation time: 5 hr 38 min 5 sec) 
Heartbeat CPU 0 instructions: 980000002 cycles: 7222019271 heartbeat IPC: 0.10982 cumulative IPC: 0.109104 (Simulation time: 5 hr 42 min 39 sec) 
Heartbeat CPU 0 instructions: 990000000 cycles: 7315654655 heartbeat IPC: 0.106797 cumulative IPC: 0.109074 (Simulation time: 5 hr 47 min 8 sec) 
Heartbeat CPU 0 instructions: 1000000003 cycles: 7420821238 heartbeat IPC: 0.0950873 cumulative IPC: 0.108874 (Simulation time: 5 hr 51 min 38 sec) 
Heartbeat CPU 0 instructions: 1010000002 cycles: 7512973972 heartbeat IPC: 0.108515 cumulative IPC: 0.108869 (Simulation time: 5 hr 56 min 14 sec) 
Heartbeat CPU 0 instructions: 1020000001 cycles: 7604838196 heartbeat IPC: 0.108856 cumulative IPC: 0.108869 (Simulation time: 6 hr 0 min 47 sec) 
Heartbeat CPU 0 instructions: 1030000004 cycles: 7704611783 heartbeat IPC: 0.100227 cumulative IPC: 0.108756 (Simulation time: 6 hr 5 min 18 sec) 
Heartbeat CPU 0 instructions: 1040000000 cycles: 7806619291 heartbeat IPC: 0.098032 cumulative IPC: 0.108615 (Simulation time: 6 hr 8 min 46 sec) 
Heartbeat CPU 0 instructions: 1050000002 cycles: 7903280242 heartbeat IPC: 0.103454 cumulative IPC: 0.108551 (Simulation time: 6 hr 13 min 17 sec) 
Heartbeat CPU 0 instructions: 1060000003 cycles: 7995810843 heartbeat IPC: 0.108072 cumulative IPC: 0.108545 (Simulation time: 6 hr 17 min 54 sec) 
Heartbeat CPU 0 instructions: 1070000003 cycles: 8098574754 heartbeat IPC: 0.0973104 cumulative IPC: 0.108402 (Simulation time: 6 hr 22 min 19 sec) 
Heartbeat CPU 0 instructions: 1080000002 cycles: 8189117837 heartbeat IPC: 0.110445 cumulative IPC: 0.108424 (Simulation time: 6 hr 26 min 55 sec) 
Heartbeat CPU 0 instructions: 1090000000 cycles: 8283675021 heartbeat IPC: 0.105756 cumulative IPC: 0.108394 (Simulation time: 6 hr 31 min 18 sec) 
Heartbeat CPU 0 instructions: 1100000003 cycles: 8375642428 heartbeat IPC: 0.108734 cumulative IPC: 0.108397 (Simulation time: 6 hr 35 min 51 sec) 
Heartbeat CPU 0 instructions: 1110000002 cycles: 8463104329 heartbeat IPC: 0.114335 cumulative IPC: 0.108459 (Simulation time: 6 hr 40 min 23 sec) 
Heartbeat CPU 0 instructions: 1120000002 cycles: 8555939738 heartbeat IPC: 0.107718 cumulative IPC: 0.108451 (Simulation time: 6 hr 44 min 55 sec) 
Heartbeat CPU 0 instructions: 1130000003 cycles: 8647864356 heartbeat IPC: 0.108785 cumulative IPC: 0.108455 (Simulation time: 6 hr 49 min 30 sec) 
Heartbeat CPU 0 instructions: 1140000003 cycles: 8739741889 heartbeat IPC: 0.108841 cumulative IPC: 0.108459 (Simulation time: 6 hr 54 min 9 sec) 
Heartbeat CPU 0 instructions: 1150000000 cycles: 8831770418 heartbeat IPC: 0.108662 cumulative IPC: 0.108461 (Simulation time: 6 hr 58 min 43 sec) 
Heartbeat CPU 0 instructions: 1160000004 cycles: 8933134787 heartbeat IPC: 0.098654 cumulative IPC: 0.108349 (Simulation time: 7 hr 2 min 37 sec) 
Heartbeat CPU 0 instructions: 1170000004 cycles: 9023308954 heartbeat IPC: 0.110897 cumulative IPC: 0.108374 (Simulation time: 7 hr 7 min 10 sec) 
Heartbeat CPU 0 instructions: 1180000004 cycles: 9118249196 heartbeat IPC: 0.105329 cumulative IPC: 0.108343 (Simulation time: 7 hr 11 min 31 sec) 
Heartbeat CPU 0 instructions: 1190000000 cycles: 9210913220 heartbeat IPC: 0.107917 cumulative IPC: 0.108338 (Simulation time: 7 hr 14 min 41 sec) 
*** Reached end of trace: tracer/pin/traces/sssp-twitter-427B.champsim.xz
Heartbeat CPU 0 instructions: 1200000001 cycles: 9308877913 heartbeat IPC: 0.102078 cumulative IPC: 0.108272 (Simulation time: 7 hr 19 min 12 sec) 
Finished CPU 0 instructions: 1000000000 cycles: 9236016020 cumulative IPC: 0.108272 (Simulation time: 7 hr 19 min 12 sec) 

ChampSim completed all CPUs

Region of Interest Statistics

CPU 0 cumulative IPC: 0.108272 instructions: 1000000000 cycles: 9236016020
cpu0_DTLB TOTAL     ACCESS:  340413835  HIT:  290063702  MISS:   50350133
cpu0_DTLB LOAD      ACCESS:  294969036  HIT:  247008486  MISS:   47960550
cpu0_DTLB RFO       ACCESS:   45444799  HIT:   43055216  MISS:    2389583
cpu0_DTLB PREFETCH  ACCESS:          0  HIT:          0  MISS:          0
cpu0_DTLB WRITEBACK ACCESS:          0  HIT:          0  MISS:          0
cpu0_DTLB TRANSLATION ACCESS:          0  HIT:          0  MISS:          0
cpu0_DTLB PREFETCH  REQUESTED:          0  ISSUED:          0  USEFUL:          0  USELESS:          0
cpu0_DTLB AVERAGE MISS LATENCY: 75.7221 cycles
cpu0_ITLB TOTAL     ACCESS:   37211286  HIT:   37211285  MISS:          1
cpu0_ITLB LOAD      ACCESS:   37211286  HIT:   37211285  MISS:          1
cpu0_ITLB RFO       ACCESS:          0  HIT:          0  MISS:          0
cpu0_ITLB PREFETCH  ACCESS:          0  HIT:          0  MISS:          0
cpu0_ITLB WRITEBACK ACCESS:          0  HIT:          0  MISS:          0
cpu0_ITLB TRANSLATION ACCESS:          0  HIT:          0  MISS:          0
cpu0_ITLB PREFETCH  REQUESTED:          0  ISSUED:          0  USEFUL:          0  USELESS:          0
cpu0_ITLB AVERAGE MISS LATENCY: 557 cycles
cpu0_L1I TOTAL     ACCESS:        745  HIT:        706  MISS:         39
cpu0_L1I LOAD      ACCESS:        745  HIT:        706  MISS:         39
cpu0_L1I RFO       ACCESS:          0  HIT:          0  MISS:          0
cpu0_L1I PREFETCH  ACCESS:          0  HIT:          0  MISS:          0
cpu0_L1I WRITEBACK ACCESS:          0  HIT:          0  MISS:          0
cpu0_L1I TRANSLATION ACCESS:          0  HIT:          0  MISS:          0
cpu0_L1I PREFETCH  REQUESTED:          0  ISSUED:          0  USEFUL:          0  USELESS:          0
cpu0_L1I AVERAGE MISS LATENCY: 481.308 cycles
cpu0_STLB TOTAL     ACCESS:   50350134  HIT:    4471949  MISS:   45878185
cpu0_STLB LOAD      ACCESS:   47960551  HIT:    2728820  MISS:   45231731
cpu0_STLB RFO       ACCESS:    2389583  HIT:    1743129  MISS:     646454
cpu0_STLB PREFETCH  ACCESS:          0  HIT:          0  MISS:          0
cpu0_STLB WRITEBACK ACCESS:          0  HIT:          0  MISS:          0
cpu0_STLB TRANSLATION ACCESS:          0  HIT:          0  MISS:          0
cpu0_STLB PREFETCH  REQUESTED:          0  ISSUED:          0  USEFUL:          0  USELESS:          0
cpu0_STLB AVERAGE MISS LATENCY: 73.2189 cycles
cpu0_L1D TOTAL     ACCESS:  543730772  HIT:  436765649  MISS:  106965123
cpu0_L1D LOAD      ACCESS:  290569899  HIT:  228664213  MISS:   61905686
cpu0_L1D RFO       ACCESS:   58927368  HIT:   56523206  MISS:    2404162
cpu0_L1D PREFETCH  ACCESS:  159605052  HIT:  118368849  MISS:   41236203
cpu0_L1D WRITEBACK ACCESS:          0  HIT:          0  MISS:          0
cpu0_L1D TRANSLATION ACCESS:   34628453  HIT:   33209381  MISS:    1419072
cpu0_L1D PREFETCH  REQUESTED:  298584529  ISSUED:  175059873  USEFUL:    8362148  USELESS:   36535595
cpu0_L1D AVERAGE MISS LATENCY: 553.121 cycles
cpu0_L2C TOTAL     ACCESS:  116103248  HIT:   14048259  MISS:  102054989
cpu0_L2C LOAD      ACCESS:   58243838  HIT:    2220952  MISS:   56022886
cpu0_L2C RFO       ACCESS:    2403967  HIT:    1313885  MISS:    1090082
cpu0_L2C PREFETCH  ACCESS:   47394904  HIT:    2775631  MISS:   44619273
cpu0_L2C WRITEBACK ACCESS:    6641467  HIT:    6611447  MISS:      30020
cpu0_L2C TRANSLATION ACCESS:    1419072  HIT:    1126344  MISS:     292728
cpu0_L2C PREFETCH  REQUESTED:    4195924  ISSUED:    3472673  USEFUL:     440534  USELESS:     975515
cpu0_L2C AVERAGE MISS LATENCY: 600.109 cycles
LLC TOTAL     ACCESS:  107128870  HIT:   16554362  MISS:   90574508
LLC LOAD      ACCESS:   56022865  HIT:    7080097  MISS:   48942768
LLC RFO       ACCESS:    1090057  HIT:     595511  MISS:     494546
LLC PREFETCH  ACCESS:   45134026  HIT:    4224803  MISS:   40909223
LLC WRITEBACK ACCESS:    4589194  HIT:    4430804  MISS:     158390
LLC TRANSLATION ACCESS:     292728  HIT:     223147  MISS:      69581
LLC PREFETCH  REQUESTED:          0  ISSUED:          0  USEFUL:          0  USELESS:          0
LLC AVERAGE MISS LATENCY: 650.319 cycles

DRAM Statistics
 CHANNEL 0
 RQ ROW_BUFFER_HIT:    5682399  ROW_BUFFER_MISS:   84728592
 DBUS AVG_CONGESTED_CYCLE:     3.9582
 WQ ROW_BUFFER_HIT:       9454  ROW_BUFFER_MISS:    3711967  FULL:          0


CPU 0 Branch Prediction Accuracy: 95.663% MPKI: 5.3458 Average ROB Occupancy at Mispredict: 43.2802
Branch type MPKI
BRANCH_DIRECT_JUMP: 8e-06
BRANCH_INDIRECT: 0
BRANCH_CONDITIONAL: 5.34578
BRANCH_DIRECT_CALL: 5e-06
BRANCH_INDIRECT_CALL: 0
BRANCH_RETURN: 5e-06

