
*** ChampSim Multicore Out-of-Order Simulator ***

Warmup Instructions: 1000000
Simulation Instructions: 1000000000
Number of CPUs: 1
Off-chip DRAM Size: 4 GiB Channels: 1 Width: 64-bit Data Rate: 3200 MT/s

VirtualMemory physical capacity: 8588881920 num_ppages: 2096895
VirtualMemory page size: 4096 log2_page_size: 12

CPU 0 runs tracer/pin/traces/spec2k17/602.gcc_s-734B.champsimtrace.xz
Basic BTB sets: 1024 ways: 8 indirect buffer size: 4096 RAS size: 64
cpu0_L1D next line prefetcher
cpu0_L2C IP-based stride prefetcher
WARNING: The extended signature CACHE::prefetch_line(ip, base_addr, pf_addr, fill_this_level, prefetch_metadata) is deprecated.
WARNING: Use CACHE::prefetch_line(pf_addr, fill_this_level, prefetch_metadata) instead.

Warmup complete CPU 0 instructions: 1000002 cycles: 250071 (Simulation time: 0 hr 0 min 3 sec) 

Heartbeat CPU 0 instructions: 10000000 cycles: 11732305 heartbeat IPC: 0.852347 cumulative IPC: 0.783819 (Simulation time: 0 hr 0 min 55 sec) 
Heartbeat CPU 0 instructions: 20000002 cycles: 26705801 heartbeat IPC: 0.667847 cumulative IPC: 0.718181 (Simulation time: 0 hr 2 min 0 sec) 
Heartbeat CPU 0 instructions: 30000003 cycles: 39429779 heartbeat IPC: 0.785918 cumulative IPC: 0.740179 (Simulation time: 0 hr 3 min 0 sec) 
Heartbeat CPU 0 instructions: 40000000 cycles: 56855887 heartbeat IPC: 0.573851 cumulative IPC: 0.688975 (Simulation time: 0 hr 4 min 12 sec) 
Heartbeat CPU 0 instructions: 50000000 cycles: 73921818 heartbeat IPC: 0.585963 cumulative IPC: 0.665112 (Simulation time: 0 hr 5 min 25 sec) 
Heartbeat CPU 0 instructions: 60000000 cycles: 90959147 heartbeat IPC: 0.586946 cumulative IPC: 0.650431 (Simulation time: 0 hr 6 min 37 sec) 
Heartbeat CPU 0 instructions: 70000003 cycles: 108066433 heartbeat IPC: 0.584546 cumulative IPC: 0.639977 (Simulation time: 0 hr 7 min 51 sec) 
Heartbeat CPU 0 instructions: 80000000 cycles: 125191711 heartbeat IPC: 0.583932 cumulative IPC: 0.632295 (Simulation time: 0 hr 9 min 2 sec) 
Heartbeat CPU 0 instructions: 90000000 cycles: 142371824 heartbeat IPC: 0.582068 cumulative IPC: 0.626224 (Simulation time: 0 hr 10 min 15 sec) 
Heartbeat CPU 0 instructions: 100000002 cycles: 180825495 heartbeat IPC: 0.260053 cumulative IPC: 0.548247 (Simulation time: 0 hr 13 min 25 sec) 
Heartbeat CPU 0 instructions: 110000000 cycles: 198025696 heartbeat IPC: 0.581388 cumulative IPC: 0.55113 (Simulation time: 0 hr 14 min 37 sec) 
Heartbeat CPU 0 instructions: 120000001 cycles: 215081564 heartbeat IPC: 0.586309 cumulative IPC: 0.553923 (Simulation time: 0 hr 15 min 49 sec) 
Heartbeat CPU 0 instructions: 130000001 cycles: 234578649 heartbeat IPC: 0.512897 cumulative IPC: 0.550509 (Simulation time: 0 hr 17 min 18 sec) 
Heartbeat CPU 0 instructions: 140000000 cycles: 251855371 heartbeat IPC: 0.578813 cumulative IPC: 0.552453 (Simulation time: 0 hr 18 min 30 sec) 
Heartbeat CPU 0 instructions: 150000000 cycles: 264467724 heartbeat IPC: 0.792873 cumulative IPC: 0.563929 (Simulation time: 0 hr 19 min 30 sec) 
Heartbeat CPU 0 instructions: 160000002 cycles: 278036006 heartbeat IPC: 0.737013 cumulative IPC: 0.572383 (Simulation time: 0 hr 20 min 33 sec) 
Heartbeat CPU 0 instructions: 170000003 cycles: 295011449 heartbeat IPC: 0.589086 cumulative IPC: 0.573345 (Simulation time: 0 hr 21 min 45 sec) 
Heartbeat CPU 0 instructions: 180000003 cycles: 312261626 heartbeat IPC: 0.579704 cumulative IPC: 0.573697 (Simulation time: 0 hr 22 min 58 sec) 
Heartbeat CPU 0 instructions: 190000000 cycles: 344122976 heartbeat IPC: 0.31386 cumulative IPC: 0.549622 (Simulation time: 0 hr 24 min 41 sec) 
Heartbeat CPU 0 instructions: 200000000 cycles: 365530449 heartbeat IPC: 0.467127 cumulative IPC: 0.544787 (Simulation time: 0 hr 26 min 2 sec) 
Heartbeat CPU 0 instructions: 210000000 cycles: 382387944 heartbeat IPC: 0.593208 cumulative IPC: 0.546923 (Simulation time: 0 hr 27 min 10 sec) 
Heartbeat CPU 0 instructions: 220000001 cycles: 399922949 heartbeat IPC: 0.570288 cumulative IPC: 0.547948 (Simulation time: 0 hr 28 min 20 sec) 
Heartbeat CPU 0 instructions: 230000002 cycles: 417067791 heartbeat IPC: 0.583266 cumulative IPC: 0.549401 (Simulation time: 0 hr 29 min 30 sec) 
Heartbeat CPU 0 instructions: 240000001 cycles: 434157642 heartbeat IPC: 0.585143 cumulative IPC: 0.550809 (Simulation time: 0 hr 30 min 40 sec) 
Heartbeat CPU 0 instructions: 250000000 cycles: 451345448 heartbeat IPC: 0.581808 cumulative IPC: 0.55199 (Simulation time: 0 hr 31 min 53 sec) 
Heartbeat CPU 0 instructions: 260000000 cycles: 468415140 heartbeat IPC: 0.585834 cumulative IPC: 0.553224 (Simulation time: 0 hr 33 min 5 sec) 
Heartbeat CPU 0 instructions: 270000000 cycles: 485738414 heartbeat IPC: 0.577258 cumulative IPC: 0.554081 (Simulation time: 0 hr 34 min 22 sec) 
Heartbeat CPU 0 instructions: 280000001 cycles: 503187499 heartbeat IPC: 0.573096 cumulative IPC: 0.554741 (Simulation time: 0 hr 35 min 34 sec) 
Heartbeat CPU 0 instructions: 290000000 cycles: 520284327 heartbeat IPC: 0.584904 cumulative IPC: 0.555733 (Simulation time: 0 hr 36 min 46 sec) 
Heartbeat CPU 0 instructions: 300000002 cycles: 537772537 heartbeat IPC: 0.571814 cumulative IPC: 0.556256 (Simulation time: 0 hr 38 min 1 sec) 
Heartbeat CPU 0 instructions: 310000003 cycles: 554815890 heartbeat IPC: 0.586739 cumulative IPC: 0.557193 (Simulation time: 0 hr 39 min 11 sec) 
Heartbeat CPU 0 instructions: 320000000 cycles: 572015550 heartbeat IPC: 0.581407 cumulative IPC: 0.557921 (Simulation time: 0 hr 40 min 23 sec) 
Heartbeat CPU 0 instructions: 330000003 cycles: 587942441 heartbeat IPC: 0.627869 cumulative IPC: 0.559817 (Simulation time: 0 hr 41 min 33 sec) 
Heartbeat CPU 0 instructions: 340000004 cycles: 605078488 heartbeat IPC: 0.583565 cumulative IPC: 0.56049 (Simulation time: 0 hr 42 min 44 sec) 
Heartbeat CPU 0 instructions: 350000002 cycles: 622280714 heartbeat IPC: 0.58132 cumulative IPC: 0.561066 (Simulation time: 0 hr 43 min 56 sec) 
Heartbeat CPU 0 instructions: 360000001 cycles: 639055505 heartbeat IPC: 0.596133 cumulative IPC: 0.561986 (Simulation time: 0 hr 45 min 8 sec) 
Heartbeat CPU 0 instructions: 370000001 cycles: 656216678 heartbeat IPC: 0.582711 cumulative IPC: 0.562529 (Simulation time: 0 hr 46 min 20 sec) 
Heartbeat CPU 0 instructions: 380000000 cycles: 673434551 heartbeat IPC: 0.580792 cumulative IPC: 0.562996 (Simulation time: 0 hr 47 min 33 sec) 
Heartbeat CPU 0 instructions: 390000000 cycles: 689502490 heartbeat IPC: 0.622357 cumulative IPC: 0.56438 (Simulation time: 0 hr 48 min 45 sec) 
Heartbeat CPU 0 instructions: 400000003 cycles: 706602253 heartbeat IPC: 0.584804 cumulative IPC: 0.564874 (Simulation time: 0 hr 49 min 58 sec) 
Heartbeat CPU 0 instructions: 410000001 cycles: 723757644 heartbeat IPC: 0.582907 cumulative IPC: 0.565302 (Simulation time: 0 hr 51 min 9 sec) 
Heartbeat CPU 0 instructions: 420000001 cycles: 742922505 heartbeat IPC: 0.521788 cumulative IPC: 0.564179 (Simulation time: 0 hr 52 min 27 sec) 
Heartbeat CPU 0 instructions: 430000002 cycles: 760147189 heartbeat IPC: 0.580562 cumulative IPC: 0.56455 (Simulation time: 0 hr 53 min 39 sec) 
Heartbeat CPU 0 instructions: 440000001 cycles: 777398910 heartbeat IPC: 0.579652 cumulative IPC: 0.564885 (Simulation time: 0 hr 54 min 51 sec) 
Heartbeat CPU 0 instructions: 450000000 cycles: 794864957 heartbeat IPC: 0.572539 cumulative IPC: 0.565054 (Simulation time: 0 hr 56 min 4 sec) 
Heartbeat CPU 0 instructions: 460000000 cycles: 811868288 heartbeat IPC: 0.58812 cumulative IPC: 0.565537 (Simulation time: 0 hr 57 min 15 sec) 
Heartbeat CPU 0 instructions: 470000001 cycles: 829287316 heartbeat IPC: 0.574085 cumulative IPC: 0.565716 (Simulation time: 0 hr 58 min 28 sec) 
Heartbeat CPU 0 instructions: 480000001 cycles: 847114428 heartbeat IPC: 0.560943 cumulative IPC: 0.565616 (Simulation time: 0 hr 59 min 45 sec) 
Heartbeat CPU 0 instructions: 490000000 cycles: 864235281 heartbeat IPC: 0.584083 cumulative IPC: 0.565982 (Simulation time: 1 hr 0 min 57 sec) 
Heartbeat CPU 0 instructions: 500000002 cycles: 880898642 heartbeat IPC: 0.600119 cumulative IPC: 0.566628 (Simulation time: 1 hr 2 min 8 sec) 
Heartbeat CPU 0 instructions: 510000001 cycles: 898050758 heartbeat IPC: 0.583018 cumulative IPC: 0.566941 (Simulation time: 1 hr 3 min 20 sec) 
Heartbeat CPU 0 instructions: 520000002 cycles: 915441468 heartbeat IPC: 0.57502 cumulative IPC: 0.567095 (Simulation time: 1 hr 4 min 33 sec) 
Heartbeat CPU 0 instructions: 530000001 cycles: 932320802 heartbeat IPC: 0.59244 cumulative IPC: 0.567554 (Simulation time: 1 hr 5 min 46 sec) 
Heartbeat CPU 0 instructions: 540000004 cycles: 949190439 heartbeat IPC: 0.592781 cumulative IPC: 0.568002 (Simulation time: 1 hr 6 min 58 sec) 
Heartbeat CPU 0 instructions: 550000000 cycles: 966273269 heartbeat IPC: 0.585383 cumulative IPC: 0.568309 (Simulation time: 1 hr 8 min 10 sec) 
Heartbeat CPU 0 instructions: 560000000 cycles: 985435547 heartbeat IPC: 0.521859 cumulative IPC: 0.567406 (Simulation time: 1 hr 9 min 28 sec) 
Heartbeat CPU 0 instructions: 570000004 cycles: 1001725962 heartbeat IPC: 0.613858 cumulative IPC: 0.568161 (Simulation time: 1 hr 10 min 40 sec) 
Heartbeat CPU 0 instructions: 580000000 cycles: 1015098399 heartbeat IPC: 0.747807 cumulative IPC: 0.570529 (Simulation time: 1 hr 11 min 44 sec) 
Heartbeat CPU 0 instructions: 590000000 cycles: 1032370090 heartbeat IPC: 0.578982 cumulative IPC: 0.57067 (Simulation time: 1 hr 12 min 56 sec) 
Heartbeat CPU 0 instructions: 600000001 cycles: 1049350299 heartbeat IPC: 0.588921 cumulative IPC: 0.570965 (Simulation time: 1 hr 14 min 6 sec) 
Heartbeat CPU 0 instructions: 610000003 cycles: 1066685781 heartbeat IPC: 0.576852 cumulative IPC: 0.571061 (Simulation time: 1 hr 15 min 17 sec) 
Heartbeat CPU 0 instructions: 620000000 cycles: 1083741120 heartbeat IPC: 0.586326 cumulative IPC: 0.571301 (Simulation time: 1 hr 16 min 24 sec) 
Heartbeat CPU 0 instructions: 630000004 cycles: 1100748314 heartbeat IPC: 0.587987 cumulative IPC: 0.571559 (Simulation time: 1 hr 17 min 32 sec) 
Heartbeat CPU 0 instructions: 640000003 cycles: 1118146337 heartbeat IPC: 0.574778 cumulative IPC: 0.571609 (Simulation time: 1 hr 18 min 41 sec) 
Heartbeat CPU 0 instructions: 650000002 cycles: 1135253714 heartbeat IPC: 0.584543 cumulative IPC: 0.571804 (Simulation time: 1 hr 19 min 49 sec) 
Heartbeat CPU 0 instructions: 660000003 cycles: 1152293257 heartbeat IPC: 0.58687 cumulative IPC: 0.572027 (Simulation time: 1 hr 20 min 59 sec) 
Heartbeat CPU 0 instructions: 670000003 cycles: 1169340503 heartbeat IPC: 0.586605 cumulative IPC: 0.57224 (Simulation time: 1 hr 22 min 10 sec) 
Heartbeat CPU 0 instructions: 680000000 cycles: 1186477291 heartbeat IPC: 0.58354 cumulative IPC: 0.572403 (Simulation time: 1 hr 23 min 20 sec) 
Heartbeat CPU 0 instructions: 690000002 cycles: 1203640260 heartbeat IPC: 0.58265 cumulative IPC: 0.572549 (Simulation time: 1 hr 24 min 30 sec) 
Heartbeat CPU 0 instructions: 700000001 cycles: 1221088000 heartbeat IPC: 0.57314 cumulative IPC: 0.572558 (Simulation time: 1 hr 25 min 40 sec) 
Heartbeat CPU 0 instructions: 710000001 cycles: 1238117015 heartbeat IPC: 0.587233 cumulative IPC: 0.572759 (Simulation time: 1 hr 26 min 47 sec) 
Heartbeat CPU 0 instructions: 720000000 cycles: 1255438583 heartbeat IPC: 0.577315 cumulative IPC: 0.572822 (Simulation time: 1 hr 27 min 54 sec) 
Heartbeat CPU 0 instructions: 730000004 cycles: 1272676415 heartbeat IPC: 0.58012 cumulative IPC: 0.572921 (Simulation time: 1 hr 29 min 3 sec) 
Heartbeat CPU 0 instructions: 740000004 cycles: 1285281534 heartbeat IPC: 0.793328 cumulative IPC: 0.575083 (Simulation time: 1 hr 30 min 1 sec) 
Heartbeat CPU 0 instructions: 750000001 cycles: 1298114440 heartbeat IPC: 0.779247 cumulative IPC: 0.577102 (Simulation time: 1 hr 31 min 0 sec) 
Heartbeat CPU 0 instructions: 760000002 cycles: 1328780791 heartbeat IPC: 0.32609 cumulative IPC: 0.571308 (Simulation time: 1 hr 32 min 39 sec) 
Heartbeat CPU 0 instructions: 770000000 cycles: 1351516169 heartbeat IPC: 0.439843 cumulative IPC: 0.569096 (Simulation time: 1 hr 33 min 57 sec) 
Heartbeat CPU 0 instructions: 780000000 cycles: 1368577196 heartbeat IPC: 0.586131 cumulative IPC: 0.569308 (Simulation time: 1 hr 35 min 4 sec) 
Heartbeat CPU 0 instructions: 790000004 cycles: 1385948796 heartbeat IPC: 0.575652 cumulative IPC: 0.569388 (Simulation time: 1 hr 36 min 7 sec) 
Heartbeat CPU 0 instructions: 800000001 cycles: 1403234215 heartbeat IPC: 0.578522 cumulative IPC: 0.5695 (Simulation time: 1 hr 37 min 11 sec) 
Heartbeat CPU 0 instructions: 810000000 cycles: 1420190905 heartbeat IPC: 0.589738 cumulative IPC: 0.569742 (Simulation time: 1 hr 38 min 15 sec) 
Heartbeat CPU 0 instructions: 820000000 cycles: 1436057412 heartbeat IPC: 0.630258 cumulative IPC: 0.570411 (Simulation time: 1 hr 39 min 16 sec) 
Heartbeat CPU 0 instructions: 830000002 cycles: 1452547400 heartbeat IPC: 0.606429 cumulative IPC: 0.57082 (Simulation time: 1 hr 40 min 18 sec) 
Heartbeat CPU 0 instructions: 840000002 cycles: 1465030593 heartbeat IPC: 0.801077 cumulative IPC: 0.572782 (Simulation time: 1 hr 41 min 12 sec) 
Heartbeat CPU 0 instructions: 850000004 cycles: 1480571299 heartbeat IPC: 0.643472 cumulative IPC: 0.573524 (Simulation time: 1 hr 42 min 13 sec) 
Heartbeat CPU 0 instructions: 860000004 cycles: 1497602610 heartbeat IPC: 0.587154 cumulative IPC: 0.573679 (Simulation time: 1 hr 43 min 16 sec) 
Heartbeat CPU 0 instructions: 870000000 cycles: 1514687443 heartbeat IPC: 0.585314 cumulative IPC: 0.57381 (Simulation time: 1 hr 44 min 20 sec) 
Heartbeat CPU 0 instructions: 880000003 cycles: 1532115593 heartbeat IPC: 0.573785 cumulative IPC: 0.57381 (Simulation time: 1 hr 45 min 24 sec) 
Heartbeat CPU 0 instructions: 890000003 cycles: 1548996411 heartbeat IPC: 0.592388 cumulative IPC: 0.574013 (Simulation time: 1 hr 46 min 23 sec) 
Heartbeat CPU 0 instructions: 900000000 cycles: 1566242150 heartbeat IPC: 0.579853 cumulative IPC: 0.574077 (Simulation time: 1 hr 47 min 27 sec) 
Heartbeat CPU 0 instructions: 910000000 cycles: 1582664092 heartbeat IPC: 0.608941 cumulative IPC: 0.574439 (Simulation time: 1 hr 48 min 26 sec) 
Heartbeat CPU 0 instructions: 920000003 cycles: 1599727682 heartbeat IPC: 0.586043 cumulative IPC: 0.574563 (Simulation time: 1 hr 49 min 29 sec) 
Heartbeat CPU 0 instructions: 930000000 cycles: 1617047994 heartbeat IPC: 0.577357 cumulative IPC: 0.574593 (Simulation time: 1 hr 50 min 33 sec) 
Heartbeat CPU 0 instructions: 940000003 cycles: 1633579950 heartbeat IPC: 0.604889 cumulative IPC: 0.574899 (Simulation time: 1 hr 51 min 37 sec) 
Heartbeat CPU 0 instructions: 950000001 cycles: 1650598111 heartbeat IPC: 0.587607 cumulative IPC: 0.57503 (Simulation time: 1 hr 52 min 39 sec) 
Heartbeat CPU 0 instructions: 960000003 cycles: 1667942018 heartbeat IPC: 0.576571 cumulative IPC: 0.575046 (Simulation time: 1 hr 53 min 44 sec) 
Heartbeat CPU 0 instructions: 970000002 cycles: 1684983088 heartbeat IPC: 0.586818 cumulative IPC: 0.575165 (Simulation time: 1 hr 54 min 46 sec) 
Heartbeat CPU 0 instructions: 980000000 cycles: 1702009190 heartbeat IPC: 0.587333 cumulative IPC: 0.575287 (Simulation time: 1 hr 55 min 51 sec) 
Heartbeat CPU 0 instructions: 990000000 cycles: 1719281233 heartbeat IPC: 0.57897 cumulative IPC: 0.575324 (Simulation time: 1 hr 56 min 56 sec) 
Heartbeat CPU 0 instructions: 1000000001 cycles: 1736388992 heartbeat IPC: 0.58453 cumulative IPC: 0.575415 (Simulation time: 1 hr 57 min 59 sec) 
Finished CPU 0 instructions: 1000000004 cycles: 1737830940 cumulative IPC: 0.57543 (Simulation time: 1 hr 58 min 6 sec) 

ChampSim completed all CPUs

Region of Interest Statistics

CPU 0 cumulative IPC: 0.57543 instructions: 1000000004 cycles: 1737830940
cpu0_DTLB TOTAL     ACCESS:  183229069  HIT:  182634489  MISS:     594580
cpu0_DTLB LOAD      ACCESS:  145522765  HIT:  144930042  MISS:     592723
cpu0_DTLB RFO       ACCESS:   37706304  HIT:   37704447  MISS:       1857
cpu0_DTLB PREFETCH  ACCESS:          0  HIT:          0  MISS:          0
cpu0_DTLB WRITEBACK ACCESS:          0  HIT:          0  MISS:          0
cpu0_DTLB TRANSLATION ACCESS:          0  HIT:          0  MISS:          0
cpu0_DTLB PREFETCH  REQUESTED:          0  ISSUED:          0  USEFUL:          0  USELESS:          0
cpu0_DTLB AVERAGE MISS LATENCY: 19.7933 cycles
cpu0_ITLB TOTAL     ACCESS:  111754828  HIT:  111754816  MISS:         12
cpu0_ITLB LOAD      ACCESS:  111754828  HIT:  111754816  MISS:         12
cpu0_ITLB RFO       ACCESS:          0  HIT:          0  MISS:          0
cpu0_ITLB PREFETCH  ACCESS:          0  HIT:          0  MISS:          0
cpu0_ITLB WRITEBACK ACCESS:          0  HIT:          0  MISS:          0
cpu0_ITLB TRANSLATION ACCESS:          0  HIT:          0  MISS:          0
cpu0_ITLB PREFETCH  REQUESTED:          0  ISSUED:          0  USEFUL:          0  USELESS:          0
cpu0_ITLB AVERAGE MISS LATENCY: 305.583 cycles
cpu0_L1I TOTAL     ACCESS:     314975  HIT:     314830  MISS:        145
cpu0_L1I LOAD      ACCESS:     314975  HIT:     314830  MISS:        145
cpu0_L1I RFO       ACCESS:          0  HIT:          0  MISS:          0
cpu0_L1I PREFETCH  ACCESS:          0  HIT:          0  MISS:          0
cpu0_L1I WRITEBACK ACCESS:          0  HIT:          0  MISS:          0
cpu0_L1I TRANSLATION ACCESS:          0  HIT:          0  MISS:          0
cpu0_L1I PREFETCH  REQUESTED:          0  ISSUED:          0  USEFUL:          0  USELESS:          0
cpu0_L1I AVERAGE MISS LATENCY: 340.345 cycles
cpu0_STLB TOTAL     ACCESS:     594592  HIT:     365565  MISS:     229027
cpu0_STLB LOAD      ACCESS:     592735  HIT:     364494  MISS:     228241
cpu0_STLB RFO       ACCESS:       1857  HIT:       1071  MISS:        786
cpu0_STLB PREFETCH  ACCESS:          0  HIT:          0  MISS:          0
cpu0_STLB WRITEBACK ACCESS:          0  HIT:          0  MISS:          0
cpu0_STLB TRANSLATION ACCESS:          0  HIT:          0  MISS:          0
cpu0_STLB PREFETCH  REQUESTED:          0  ISSUED:          0  USEFUL:          0  USELESS:          0
cpu0_STLB AVERAGE MISS LATENCY: 28.0321 cycles
cpu0_L1D TOTAL     ACCESS:  326083637  HIT:  307950700  MISS:   18132937
cpu0_L1D LOAD      ACCESS:  129192558  HIT:  122149404  MISS:    7043154
cpu0_L1D RFO       ACCESS:   99635973  HIT:   99624677  MISS:      11296
cpu0_L1D PREFETCH  ACCESS:   97029994  HIT:   85994009  MISS:   11035985
cpu0_L1D WRITEBACK ACCESS:          0  HIT:          0  MISS:          0
cpu0_L1D TRANSLATION ACCESS:     225112  HIT:     182610  MISS:      42502
cpu0_L1D PREFETCH  REQUESTED:  131871871  ISSUED:  131837556  USEFUL:   16217578  USELESS:     477653
cpu0_L1D AVERAGE MISS LATENCY: 55.9511 cycles
cpu0_L2C TOTAL     ACCESS:   19240722  HIT:   10268305  MISS:    8972417
cpu0_L2C LOAD      ACCESS:    1388255  HIT:     980623  MISS:     407632
cpu0_L2C RFO       ACCESS:       7087  HIT:       2975  MISS:       4112
cpu0_L2C PREFETCH  ACCESS:   17639102  HIT:    9090082  MISS:    8549020
cpu0_L2C WRITEBACK ACCESS:     163776  HIT:     163511  MISS:        265
cpu0_L2C TRANSLATION ACCESS:      42502  HIT:      31114  MISS:      11388
cpu0_L2C PREFETCH  REQUESTED:    1137771  ISSUED:     982791  USEFUL:      44662  USELESS:      30132
cpu0_L2C AVERAGE MISS LATENCY: 285.175 cycles
LLC TOTAL     ACCESS:    9060908  HIT:     177803  MISS:    8883105
LLC LOAD      ACCESS:     407623  HIT:      32794  MISS:     374829
LLC RFO       ACCESS:       4112  HIT:        219  MISS:       3893
LLC PREFETCH  ACCESS:    8549055  HIT:      66934  MISS:    8482121
LLC WRITEBACK ACCESS:      88730  HIT:      71493  MISS:      17237
LLC TRANSLATION ACCESS:      11388  HIT:       6363  MISS:       5025
LLC PREFETCH  REQUESTED:          0  ISSUED:          0  USEFUL:          0  USELESS:          0
LLC AVERAGE MISS LATENCY: 260.774 cycles

DRAM Statistics
 CHANNEL 0
 RQ ROW_BUFFER_HIT:    2266761  ROW_BUFFER_MISS:    6598963
 DBUS AVG_CONGESTED_CYCLE:    3.70116
 WQ ROW_BUFFER_HIT:      15885  ROW_BUFFER_MISS:      70524  FULL:          0


CPU 0 Branch Prediction Accuracy: 94.7236% MPKI: 12.5632 Average ROB Occupancy at Mispredict: 55.9497
Branch type MPKI
BRANCH_DIRECT_JUMP: 7.4e-05
BRANCH_INDIRECT: 0
BRANCH_CONDITIONAL: 12.5631
BRANCH_DIRECT_CALL: 3.9e-05
BRANCH_INDIRECT_CALL: 8e-06
BRANCH_RETURN: 3.8e-05

