
*** ChampSim Multicore Out-of-Order Simulator ***

Warmup Instructions: 1000000
Simulation Instructions: 1000000000
Number of CPUs: 1
Off-chip DRAM Size: 4 GiB Channels: 1 Width: 64-bit Data Rate: 3200 MT/s

VirtualMemory physical capacity: 8588881920 num_ppages: 2096895
VirtualMemory page size: 4096 log2_page_size: 12

CPU 0 runs tracer/pin/traces/spec2k17/623.xalancbmk_s-700B.champsimtrace.xz
Basic BTB sets: 1024 ways: 8 indirect buffer size: 4096 RAS size: 64
cpu0_L1D next line prefetcher
cpu0_L2C IP-based stride prefetcher
WARNING: The extended signature CACHE::prefetch_line(ip, base_addr, pf_addr, fill_this_level, prefetch_metadata) is deprecated.
WARNING: Use CACHE::prefetch_line(pf_addr, fill_this_level, prefetch_metadata) instead.

Warmup complete CPU 0 instructions: 1000002 cycles: 281106 (Simulation time: 0 hr 0 min 4 sec) 

Heartbeat CPU 0 instructions: 10000000 cycles: 12051706 heartbeat IPC: 0.829758 cumulative IPC: 0.764617 (Simulation time: 0 hr 1 min 7 sec) 
Heartbeat CPU 0 instructions: 20000001 cycles: 25609288 heartbeat IPC: 0.737595 cumulative IPC: 0.750152 (Simulation time: 0 hr 2 min 18 sec) 
Heartbeat CPU 0 instructions: 30000002 cycles: 43124618 heartbeat IPC: 0.570929 cumulative IPC: 0.676882 (Simulation time: 0 hr 3 min 35 sec) 
Heartbeat CPU 0 instructions: 40000003 cycles: 56796665 heartbeat IPC: 0.731419 cumulative IPC: 0.690075 (Simulation time: 0 hr 4 min 47 sec) 
Heartbeat CPU 0 instructions: 50000003 cycles: 69532620 heartbeat IPC: 0.785179 cumulative IPC: 0.707566 (Simulation time: 0 hr 5 min 58 sec) 
Heartbeat CPU 0 instructions: 60000004 cycles: 81025419 heartbeat IPC: 0.87011 cumulative IPC: 0.730702 (Simulation time: 0 hr 7 min 10 sec) 
Heartbeat CPU 0 instructions: 70000000 cycles: 96719834 heartbeat IPC: 0.637169 cumulative IPC: 0.71548 (Simulation time: 0 hr 8 min 36 sec) 
Heartbeat CPU 0 instructions: 80000000 cycles: 114196637 heartbeat IPC: 0.572187 cumulative IPC: 0.693496 (Simulation time: 0 hr 10 min 9 sec) 
Heartbeat CPU 0 instructions: 90000000 cycles: 129128703 heartbeat IPC: 0.6697 cumulative IPC: 0.690738 (Simulation time: 0 hr 11 min 43 sec) 
Heartbeat CPU 0 instructions: 100000001 cycles: 145428361 heartbeat IPC: 0.61351 cumulative IPC: 0.682066 (Simulation time: 0 hr 13 min 21 sec) 
Heartbeat CPU 0 instructions: 110000000 cycles: 159413832 heartbeat IPC: 0.715028 cumulative IPC: 0.684963 (Simulation time: 0 hr 14 min 52 sec) 
Heartbeat CPU 0 instructions: 120000002 cycles: 172381283 heartbeat IPC: 0.771162 cumulative IPC: 0.691458 (Simulation time: 0 hr 16 min 17 sec) 
Heartbeat CPU 0 instructions: 130000000 cycles: 184192087 heartbeat IPC: 0.846682 cumulative IPC: 0.701426 (Simulation time: 0 hr 17 min 47 sec) 
Heartbeat CPU 0 instructions: 140000000 cycles: 199817329 heartbeat IPC: 0.63999 cumulative IPC: 0.696615 (Simulation time: 0 hr 19 min 39 sec) 
Heartbeat CPU 0 instructions: 150000000 cycles: 215866806 heartbeat IPC: 0.623073 cumulative IPC: 0.69114 (Simulation time: 0 hr 21 min 25 sec) 
Heartbeat CPU 0 instructions: 160000003 cycles: 231963820 heartbeat IPC: 0.621233 cumulative IPC: 0.686283 (Simulation time: 0 hr 23 min 17 sec) 
Heartbeat CPU 0 instructions: 170000003 cycles: 247638913 heartbeat IPC: 0.637955 cumulative IPC: 0.683221 (Simulation time: 0 hr 25 min 5 sec) 
Heartbeat CPU 0 instructions: 180000000 cycles: 261838681 heartbeat IPC: 0.704237 cumulative IPC: 0.684362 (Simulation time: 0 hr 26 min 43 sec) 
Heartbeat CPU 0 instructions: 190000004 cycles: 274981624 heartbeat IPC: 0.760865 cumulative IPC: 0.688022 (Simulation time: 0 hr 28 min 15 sec) 
Heartbeat CPU 0 instructions: 200000003 cycles: 287012882 heartbeat IPC: 0.831168 cumulative IPC: 0.694028 (Simulation time: 0 hr 29 min 46 sec) 
Heartbeat CPU 0 instructions: 210000002 cycles: 299714456 heartbeat IPC: 0.787304 cumulative IPC: 0.697985 (Simulation time: 0 hr 31 min 26 sec) 
Heartbeat CPU 0 instructions: 220000000 cycles: 318071325 heartbeat IPC: 0.544755 cumulative IPC: 0.689134 (Simulation time: 0 hr 33 min 24 sec) 
Heartbeat CPU 0 instructions: 230000001 cycles: 332328237 heartbeat IPC: 0.701414 cumulative IPC: 0.689661 (Simulation time: 0 hr 35 min 2 sec) 
Heartbeat CPU 0 instructions: 240000003 cycles: 345476944 heartbeat IPC: 0.760531 cumulative IPC: 0.692361 (Simulation time: 0 hr 36 min 35 sec) 
Heartbeat CPU 0 instructions: 250000004 cycles: 357780190 heartbeat IPC: 0.812794 cumulative IPC: 0.696505 (Simulation time: 0 hr 38 min 4 sec) 
Heartbeat CPU 0 instructions: 260000001 cycles: 369150889 heartbeat IPC: 0.879453 cumulative IPC: 0.702145 (Simulation time: 0 hr 39 min 31 sec) 
Heartbeat CPU 0 instructions: 270000001 cycles: 378987424 heartbeat IPC: 1.01662 cumulative IPC: 0.710313 (Simulation time: 0 hr 40 min 54 sec) 
Heartbeat CPU 0 instructions: 280000001 cycles: 390211472 heartbeat IPC: 0.890944 cumulative IPC: 0.715512 (Simulation time: 0 hr 42 min 23 sec) 
Heartbeat CPU 0 instructions: 290000001 cycles: 405232516 heartbeat IPC: 0.665733 cumulative IPC: 0.713666 (Simulation time: 0 hr 44 min 11 sec) 
Heartbeat CPU 0 instructions: 300000000 cycles: 424437457 heartbeat IPC: 0.520699 cumulative IPC: 0.704929 (Simulation time: 0 hr 46 min 11 sec) 
Heartbeat CPU 0 instructions: 310000000 cycles: 438117090 heartbeat IPC: 0.731014 cumulative IPC: 0.705744 (Simulation time: 0 hr 47 min 48 sec) 
Heartbeat CPU 0 instructions: 320000004 cycles: 454578601 heartbeat IPC: 0.607478 cumulative IPC: 0.702183 (Simulation time: 0 hr 49 min 46 sec) 
Heartbeat CPU 0 instructions: 330000001 cycles: 469143897 heartbeat IPC: 0.686563 cumulative IPC: 0.701698 (Simulation time: 0 hr 51 min 26 sec) 
Heartbeat CPU 0 instructions: 340000002 cycles: 482465364 heartbeat IPC: 0.750668 cumulative IPC: 0.703051 (Simulation time: 0 hr 52 min 59 sec) 
Heartbeat CPU 0 instructions: 350000001 cycles: 494856931 heartbeat IPC: 0.807 cumulative IPC: 0.705655 (Simulation time: 0 hr 54 min 28 sec) 
Heartbeat CPU 0 instructions: 360000000 cycles: 506711133 heartbeat IPC: 0.843583 cumulative IPC: 0.708884 (Simulation time: 0 hr 55 min 57 sec) 
Heartbeat CPU 0 instructions: 370000002 cycles: 518196440 heartbeat IPC: 0.870678 cumulative IPC: 0.712472 (Simulation time: 0 hr 57 min 23 sec) 
Heartbeat CPU 0 instructions: 380000003 cycles: 527441409 heartbeat IPC: 1.08167 cumulative IPC: 0.718946 (Simulation time: 0 hr 58 min 44 sec) 
Heartbeat CPU 0 instructions: 390000001 cycles: 536771429 heartbeat IPC: 1.07181 cumulative IPC: 0.725083 (Simulation time: 1 hr 0 min 7 sec) 
Heartbeat CPU 0 instructions: 400000001 cycles: 547727707 heartbeat IPC: 0.912719 cumulative IPC: 0.728838 (Simulation time: 1 hr 1 min 34 sec) 
Heartbeat CPU 0 instructions: 410000000 cycles: 561171597 heartbeat IPC: 0.743832 cumulative IPC: 0.729198 (Simulation time: 1 hr 3 min 12 sec) 
Heartbeat CPU 0 instructions: 420000000 cycles: 581203072 heartbeat IPC: 0.499214 cumulative IPC: 0.721267 (Simulation time: 1 hr 5 min 13 sec) 
Heartbeat CPU 0 instructions: 430000000 cycles: 595873202 heartbeat IPC: 0.681657 cumulative IPC: 0.720292 (Simulation time: 1 hr 6 min 54 sec) 
Heartbeat CPU 0 instructions: 440000001 cycles: 609216968 heartbeat IPC: 0.749414 cumulative IPC: 0.72093 (Simulation time: 1 hr 8 min 25 sec) 
Heartbeat CPU 0 instructions: 450000002 cycles: 621716823 heartbeat IPC: 0.800009 cumulative IPC: 0.72252 (Simulation time: 1 hr 9 min 56 sec) 
Heartbeat CPU 0 instructions: 460000003 cycles: 633512688 heartbeat IPC: 0.847755 cumulative IPC: 0.724853 (Simulation time: 1 hr 11 min 28 sec) 
Heartbeat CPU 0 instructions: 470000003 cycles: 651811957 heartbeat IPC: 0.54647 cumulative IPC: 0.719843 (Simulation time: 1 hr 13 min 29 sec) 
Heartbeat CPU 0 instructions: 480000004 cycles: 665816158 heartbeat IPC: 0.714072 cumulative IPC: 0.719722 (Simulation time: 1 hr 15 min 4 sec) 
Heartbeat CPU 0 instructions: 490000003 cycles: 678674736 heartbeat IPC: 0.777691 cumulative IPC: 0.72082 (Simulation time: 1 hr 16 min 37 sec) 
Heartbeat CPU 0 instructions: 500000004 cycles: 695659465 heartbeat IPC: 0.588764 cumulative IPC: 0.717595 (Simulation time: 1 hr 18 min 34 sec) 
Heartbeat CPU 0 instructions: 510000000 cycles: 710838713 heartbeat IPC: 0.658794 cumulative IPC: 0.716339 (Simulation time: 1 hr 20 min 16 sec) 
Heartbeat CPU 0 instructions: 520000003 cycles: 724592122 heartbeat IPC: 0.727093 cumulative IPC: 0.716543 (Simulation time: 1 hr 21 min 50 sec) 
Heartbeat CPU 0 instructions: 530000000 cycles: 737342662 heartbeat IPC: 0.78428 cumulative IPC: 0.717715 (Simulation time: 1 hr 23 min 20 sec) 
Heartbeat CPU 0 instructions: 540000004 cycles: 749366059 heartbeat IPC: 0.831712 cumulative IPC: 0.719545 (Simulation time: 1 hr 24 min 44 sec) 
Heartbeat CPU 0 instructions: 550000000 cycles: 760982265 heartbeat IPC: 0.860866 cumulative IPC: 0.721703 (Simulation time: 1 hr 26 min 6 sec) 
Heartbeat CPU 0 instructions: 560000002 cycles: 772385931 heartbeat IPC: 0.876911 cumulative IPC: 0.723995 (Simulation time: 1 hr 27 min 27 sec) 
Heartbeat CPU 0 instructions: 570000000 cycles: 781081825 heartbeat IPC: 1.14997 cumulative IPC: 0.728739 (Simulation time: 1 hr 28 min 40 sec) 
Heartbeat CPU 0 instructions: 580000001 cycles: 790013422 heartbeat IPC: 1.11962 cumulative IPC: 0.73316 (Simulation time: 1 hr 29 min 54 sec) 
Heartbeat CPU 0 instructions: 590000002 cycles: 800236463 heartbeat IPC: 0.978183 cumulative IPC: 0.736291 (Simulation time: 1 hr 31 min 11 sec) 
Heartbeat CPU 0 instructions: 600000001 cycles: 812233646 heartbeat IPC: 0.833529 cumulative IPC: 0.737728 (Simulation time: 1 hr 32 min 32 sec) 
Heartbeat CPU 0 instructions: 610000001 cycles: 827584658 heartbeat IPC: 0.651423 cumulative IPC: 0.736126 (Simulation time: 1 hr 34 min 5 sec) 
Heartbeat CPU 0 instructions: 620000001 cycles: 847695073 heartbeat IPC: 0.497255 cumulative IPC: 0.730458 (Simulation time: 1 hr 35 min 53 sec) 
Heartbeat CPU 0 instructions: 630000003 cycles: 863405568 heartbeat IPC: 0.636517 cumulative IPC: 0.728748 (Simulation time: 1 hr 37 min 30 sec) 
Heartbeat CPU 0 instructions: 640000003 cycles: 879352844 heartbeat IPC: 0.627066 cumulative IPC: 0.726903 (Simulation time: 1 hr 39 min 4 sec) 
Heartbeat CPU 0 instructions: 650000001 cycles: 893408851 heartbeat IPC: 0.711439 cumulative IPC: 0.72666 (Simulation time: 1 hr 40 min 24 sec) 
Heartbeat CPU 0 instructions: 660000000 cycles: 906368903 heartbeat IPC: 0.771602 cumulative IPC: 0.727303 (Simulation time: 1 hr 41 min 39 sec) 
Heartbeat CPU 0 instructions: 670000004 cycles: 918488172 heartbeat IPC: 0.825133 cumulative IPC: 0.728594 (Simulation time: 1 hr 42 min 53 sec) 
Heartbeat CPU 0 instructions: 680000000 cycles: 930167338 heartbeat IPC: 0.856225 cumulative IPC: 0.730197 (Simulation time: 1 hr 44 min 5 sec) 
Heartbeat CPU 0 instructions: 690000001 cycles: 939362917 heartbeat IPC: 1.08748 cumulative IPC: 0.733695 (Simulation time: 1 hr 45 min 10 sec) 
Heartbeat CPU 0 instructions: 700000001 cycles: 950667811 heartbeat IPC: 0.884573 cumulative IPC: 0.73549 (Simulation time: 1 hr 46 min 19 sec) 
Heartbeat CPU 0 instructions: 710000003 cycles: 965722785 heartbeat IPC: 0.664232 cumulative IPC: 0.734379 (Simulation time: 1 hr 47 min 34 sec) 
Heartbeat CPU 0 instructions: 720000003 cycles: 983946854 heartbeat IPC: 0.548725 cumulative IPC: 0.730939 (Simulation time: 1 hr 49 min 3 sec) 
Heartbeat CPU 0 instructions: 730000000 cycles: 999880053 heartbeat IPC: 0.62762 cumulative IPC: 0.729293 (Simulation time: 1 hr 50 min 26 sec) 
Heartbeat CPU 0 instructions: 740000001 cycles: 1015001839 heartbeat IPC: 0.661298 cumulative IPC: 0.728279 (Simulation time: 1 hr 51 min 49 sec) 
Heartbeat CPU 0 instructions: 750000003 cycles: 1031549646 heartbeat IPC: 0.60431 cumulative IPC: 0.72629 (Simulation time: 1 hr 53 min 12 sec) 
Heartbeat CPU 0 instructions: 760000001 cycles: 1048195637 heartbeat IPC: 0.600745 cumulative IPC: 0.724296 (Simulation time: 1 hr 54 min 37 sec) 
Heartbeat CPU 0 instructions: 770000000 cycles: 1062459314 heartbeat IPC: 0.701081 cumulative IPC: 0.723984 (Simulation time: 1 hr 55 min 56 sec) 
Heartbeat CPU 0 instructions: 780000001 cycles: 1075673271 heartbeat IPC: 0.756776 cumulative IPC: 0.724387 (Simulation time: 1 hr 57 min 7 sec) 
Heartbeat CPU 0 instructions: 790000001 cycles: 1087903968 heartbeat IPC: 0.817615 cumulative IPC: 0.725435 (Simulation time: 1 hr 58 min 18 sec) 
Heartbeat CPU 0 instructions: 800000003 cycles: 1098909454 heartbeat IPC: 0.908638 cumulative IPC: 0.72727 (Simulation time: 1 hr 59 min 32 sec) 
Heartbeat CPU 0 instructions: 810000000 cycles: 1113474698 heartbeat IPC: 0.686566 cumulative IPC: 0.726738 (Simulation time: 2 hr 0 min 56 sec) 
Heartbeat CPU 0 instructions: 820000001 cycles: 1130832941 heartbeat IPC: 0.576095 cumulative IPC: 0.724425 (Simulation time: 2 hr 2 min 28 sec) 
Heartbeat CPU 0 instructions: 830000000 cycles: 1146655562 heartbeat IPC: 0.632006 cumulative IPC: 0.723149 (Simulation time: 2 hr 3 min 58 sec) 
Heartbeat CPU 0 instructions: 840000001 cycles: 1162365565 heartbeat IPC: 0.636537 cumulative IPC: 0.721978 (Simulation time: 2 hr 5 min 26 sec) 
Heartbeat CPU 0 instructions: 850000001 cycles: 1175860807 heartbeat IPC: 0.741002 cumulative IPC: 0.722197 (Simulation time: 2 hr 6 min 47 sec) 
Heartbeat CPU 0 instructions: 860000001 cycles: 1191558784 heartbeat IPC: 0.637025 cumulative IPC: 0.721075 (Simulation time: 2 hr 8 min 27 sec) 
Heartbeat CPU 0 instructions: 870000001 cycles: 1206027675 heartbeat IPC: 0.691138 cumulative IPC: 0.720715 (Simulation time: 2 hr 9 min 55 sec) 
Heartbeat CPU 0 instructions: 880000000 cycles: 1219110584 heartbeat IPC: 0.764356 cumulative IPC: 0.721184 (Simulation time: 2 hr 11 min 17 sec) 
Heartbeat CPU 0 instructions: 890000001 cycles: 1232835266 heartbeat IPC: 0.728614 cumulative IPC: 0.721267 (Simulation time: 2 hr 12 min 50 sec) 
Heartbeat CPU 0 instructions: 900000001 cycles: 1250540368 heartbeat IPC: 0.564809 cumulative IPC: 0.719051 (Simulation time: 2 hr 14 min 36 sec) 
Heartbeat CPU 0 instructions: 910000000 cycles: 1264809428 heartbeat IPC: 0.700817 cumulative IPC: 0.718845 (Simulation time: 2 hr 16 min 7 sec) 
Heartbeat CPU 0 instructions: 920000004 cycles: 1277944481 heartbeat IPC: 0.761322 cumulative IPC: 0.719282 (Simulation time: 2 hr 17 min 29 sec) 
Heartbeat CPU 0 instructions: 930000000 cycles: 1289999720 heartbeat IPC: 0.829515 cumulative IPC: 0.720312 (Simulation time: 2 hr 18 min 55 sec) 
Heartbeat CPU 0 instructions: 940000001 cycles: 1307068059 heartbeat IPC: 0.58588 cumulative IPC: 0.718556 (Simulation time: 2 hr 20 min 43 sec) 
Heartbeat CPU 0 instructions: 950000003 cycles: 1321196167 heartbeat IPC: 0.707809 cumulative IPC: 0.718441 (Simulation time: 2 hr 22 min 7 sec) 
Heartbeat CPU 0 instructions: 960000001 cycles: 1337509386 heartbeat IPC: 0.613 cumulative IPC: 0.717155 (Simulation time: 2 hr 23 min 41 sec) 
Heartbeat CPU 0 instructions: 970000003 cycles: 1351656708 heartbeat IPC: 0.706848 cumulative IPC: 0.717047 (Simulation time: 2 hr 25 min 6 sec) 
Heartbeat CPU 0 instructions: 980000000 cycles: 1364757674 heartbeat IPC: 0.763302 cumulative IPC: 0.717491 (Simulation time: 2 hr 26 min 20 sec) 
Heartbeat CPU 0 instructions: 990000001 cycles: 1376976355 heartbeat IPC: 0.818419 cumulative IPC: 0.718387 (Simulation time: 2 hr 27 min 30 sec) 
Heartbeat CPU 0 instructions: 1000000003 cycles: 1387649513 heartbeat IPC: 0.93693 cumulative IPC: 0.720068 (Simulation time: 2 hr 28 min 40 sec) 
Finished CPU 0 instructions: 1000000004 cycles: 1388391128 cumulative IPC: 0.720258 (Simulation time: 2 hr 28 min 46 sec) 

ChampSim completed all CPUs

Region of Interest Statistics

CPU 0 cumulative IPC: 0.720258 instructions: 1000000004 cycles: 1388391128
cpu0_DTLB TOTAL     ACCESS:  171953396  HIT:  145087022  MISS:   26866374
cpu0_DTLB LOAD      ACCESS:  138156938  HIT:  111804901  MISS:   26352037
cpu0_DTLB RFO       ACCESS:   33796458  HIT:   33282121  MISS:     514337
cpu0_DTLB PREFETCH  ACCESS:          0  HIT:          0  MISS:          0
cpu0_DTLB WRITEBACK ACCESS:          0  HIT:          0  MISS:          0
cpu0_DTLB TRANSLATION ACCESS:          0  HIT:          0  MISS:          0
cpu0_DTLB PREFETCH  REQUESTED:          0  ISSUED:          0  USEFUL:          0  USELESS:          0
cpu0_DTLB AVERAGE MISS LATENCY: 9.57789 cycles
cpu0_ITLB TOTAL     ACCESS:   49629367  HIT:   49255588  MISS:     373779
cpu0_ITLB LOAD      ACCESS:   49629367  HIT:   49255588  MISS:     373779
cpu0_ITLB RFO       ACCESS:          0  HIT:          0  MISS:          0
cpu0_ITLB PREFETCH  ACCESS:          0  HIT:          0  MISS:          0
cpu0_ITLB WRITEBACK ACCESS:          0  HIT:          0  MISS:          0
cpu0_ITLB TRANSLATION ACCESS:          0  HIT:          0  MISS:          0
cpu0_ITLB PREFETCH  REQUESTED:          0  ISSUED:          0  USEFUL:          0  USELESS:          0
cpu0_ITLB AVERAGE MISS LATENCY: 10.0728 cycles
cpu0_L1I TOTAL     ACCESS:   46017649  HIT:   44272624  MISS:    1745025
cpu0_L1I LOAD      ACCESS:   46017649  HIT:   44272624  MISS:    1745025
cpu0_L1I RFO       ACCESS:          0  HIT:          0  MISS:          0
cpu0_L1I PREFETCH  ACCESS:          0  HIT:          0  MISS:          0
cpu0_L1I WRITEBACK ACCESS:          0  HIT:          0  MISS:          0
cpu0_L1I TRANSLATION ACCESS:          0  HIT:          0  MISS:          0
cpu0_L1I PREFETCH  REQUESTED:          0  ISSUED:          0  USEFUL:          0  USELESS:          0
cpu0_L1I AVERAGE MISS LATENCY: 24.2209 cycles
cpu0_STLB TOTAL     ACCESS:   27240153  HIT:   25690425  MISS:    1549728
cpu0_STLB LOAD      ACCESS:   26725816  HIT:   25220098  MISS:    1505718
cpu0_STLB RFO       ACCESS:     514337  HIT:     470327  MISS:      44010
cpu0_STLB PREFETCH  ACCESS:          0  HIT:          0  MISS:          0
cpu0_STLB WRITEBACK ACCESS:          0  HIT:          0  MISS:          0
cpu0_STLB TRANSLATION ACCESS:          0  HIT:          0  MISS:          0
cpu0_STLB PREFETCH  REQUESTED:          0  ISSUED:          0  USEFUL:          0  USELESS:          0
cpu0_STLB AVERAGE MISS LATENCY: 10.1709 cycles
cpu0_L1D TOTAL     ACCESS:  322646940  HIT:  237101757  MISS:   85545183
cpu0_L1D LOAD      ACCESS:  141580091  HIT:   91432622  MISS:   50147469
cpu0_L1D RFO       ACCESS:   64623229  HIT:   63030429  MISS:    1592800
cpu0_L1D PREFETCH  ACCESS:  114919606  HIT:   81301890  MISS:   33617716
cpu0_L1D WRITEBACK ACCESS:          0  HIT:          0  MISS:          0
cpu0_L1D TRANSLATION ACCESS:    1524014  HIT:    1336816  MISS:     187198
cpu0_L1D PREFETCH  REQUESTED:  150824719  ISSUED:  150520309  USEFUL:   21509321  USELESS:   21017835
cpu0_L1D AVERAGE MISS LATENCY: 31.4019 cycles
cpu0_L2C TOTAL     ACCESS:  101078716  HIT:   51025561  MISS:   50053155
cpu0_L2C LOAD      ACCESS:   43023380  HIT:   16138749  MISS:   26884631
cpu0_L2C RFO       ACCESS:    1549882  HIT:     308107  MISS:    1241775
cpu0_L2C PREFETCH  ACCESS:   53218881  HIT:   31341359  MISS:   21877522
cpu0_L2C WRITEBACK ACCESS:    3099375  HIT:    3098789  MISS:        586
cpu0_L2C TRANSLATION ACCESS:     187198  HIT:     138557  MISS:      48641
cpu0_L2C PREFETCH  REQUESTED:   19673366  ISSUED:   10880409  USEFUL:     215323  USELESS:     348684
cpu0_L2C AVERAGE MISS LATENCY: 36.6875 cycles
LLC TOTAL     ACCESS:   52123869  HIT:   50616191  MISS:    1507678
LLC LOAD      ACCESS:   26884582  HIT:   26702703  MISS:     181879
LLC RFO       ACCESS:    1241774  HIT:     245266  MISS:     996508
LLC PREFETCH  ACCESS:   21885756  HIT:   21557939  MISS:     327817
LLC WRITEBACK ACCESS:    2063116  HIT:    2061718  MISS:       1398
LLC TRANSLATION ACCESS:      48641  HIT:      48565  MISS:         76
LLC PREFETCH  REQUESTED:          0  ISSUED:          0  USEFUL:          0  USELESS:          0
LLC AVERAGE MISS LATENCY: 322.961 cycles

DRAM Statistics
 CHANNEL 0
 RQ ROW_BUFFER_HIT:     541629  ROW_BUFFER_MISS:     964630
 DBUS AVG_CONGESTED_CYCLE:    3.90415
 WQ ROW_BUFFER_HIT:      94471  ROW_BUFFER_MISS:    1110315  FULL:          0


CPU 0 Branch Prediction Accuracy: 97.8209% MPKI: 6.23464 Average ROB Occupancy at Mispredict: 34.876
Branch type MPKI
BRANCH_DIRECT_JUMP: 0.000231
BRANCH_INDIRECT: 0.340764
BRANCH_CONDITIONAL: 4.54413
BRANCH_DIRECT_CALL: 0.000455
BRANCH_INDIRECT_CALL: 0.263408
BRANCH_RETURN: 1.08565

