
*** ChampSim Multicore Out-of-Order Simulator ***

Warmup Instructions: 1000000
Simulation Instructions: 1000000000
Number of CPUs: 1
Off-chip DRAM Size: 4 GiB Channels: 1 Width: 64-bit Data Rate: 3200 MT/s

VirtualMemory physical capacity: 8588881920 num_ppages: 2096895
VirtualMemory page size: 4096 log2_page_size: 12

CPU 0 runs tracer/pin/traces/spec2k6/434.zeusmp-10B.champsimtrace.xz
Basic BTB sets: 1024 ways: 8 indirect buffer size: 4096 RAS size: 64
cpu0_L1D next line prefetcher
cpu0_L2C IP-based stride prefetcher
WARNING: The extended signature CACHE::prefetch_line(ip, base_addr, pf_addr, fill_this_level, prefetch_metadata) is deprecated.
WARNING: Use CACHE::prefetch_line(pf_addr, fill_this_level, prefetch_metadata) instead.

Warmup complete CPU 0 instructions: 1000003 cycles: 272776 (Simulation time: 0 hr 0 min 2 sec) 

Heartbeat CPU 0 instructions: 10000004 cycles: 5757569 heartbeat IPC: 1.73684 cumulative IPC: 1.6409 (Simulation time: 0 hr 0 min 44 sec) 
Heartbeat CPU 0 instructions: 20000001 cycles: 11450915 heartbeat IPC: 1.75644 cumulative IPC: 1.69975 (Simulation time: 0 hr 1 min 32 sec) 
Heartbeat CPU 0 instructions: 30000000 cycles: 17152244 heartbeat IPC: 1.75398 cumulative IPC: 1.71806 (Simulation time: 0 hr 2 min 24 sec) 
Heartbeat CPU 0 instructions: 40000004 cycles: 23204311 heartbeat IPC: 1.65233 cumulative IPC: 1.70071 (Simulation time: 0 hr 3 min 19 sec) 
Heartbeat CPU 0 instructions: 50000002 cycles: 28918976 heartbeat IPC: 1.74988 cumulative IPC: 1.71052 (Simulation time: 0 hr 4 min 16 sec) 
Heartbeat CPU 0 instructions: 60000003 cycles: 34611761 heartbeat IPC: 1.75661 cumulative IPC: 1.71816 (Simulation time: 0 hr 5 min 12 sec) 
Heartbeat CPU 0 instructions: 70000002 cycles: 40656433 heartbeat IPC: 1.65435 cumulative IPC: 1.70861 (Simulation time: 0 hr 6 min 14 sec) 
Heartbeat CPU 0 instructions: 80000003 cycles: 46390410 heartbeat IPC: 1.74399 cumulative IPC: 1.71301 (Simulation time: 0 hr 7 min 7 sec) 
Heartbeat CPU 0 instructions: 90000001 cycles: 52100032 heartbeat IPC: 1.75143 cumulative IPC: 1.71724 (Simulation time: 0 hr 8 min 6 sec) 
Heartbeat CPU 0 instructions: 100000002 cycles: 58151983 heartbeat IPC: 1.65236 cumulative IPC: 1.71046 (Simulation time: 0 hr 9 min 9 sec) 
Heartbeat CPU 0 instructions: 110000004 cycles: 63861957 heartbeat IPC: 1.75132 cumulative IPC: 1.71413 (Simulation time: 0 hr 10 min 13 sec) 
Heartbeat CPU 0 instructions: 120000000 cycles: 69561468 heartbeat IPC: 1.75454 cumulative IPC: 1.71745 (Simulation time: 0 hr 11 min 21 sec) 
Heartbeat CPU 0 instructions: 130000000 cycles: 75600348 heartbeat IPC: 1.65594 cumulative IPC: 1.71252 (Simulation time: 0 hr 12 min 28 sec) 
Heartbeat CPU 0 instructions: 140000004 cycles: 81284821 heartbeat IPC: 1.75918 cumulative IPC: 1.71579 (Simulation time: 0 hr 13 min 33 sec) 
Heartbeat CPU 0 instructions: 150000000 cycles: 86976150 heartbeat IPC: 1.75706 cumulative IPC: 1.7185 (Simulation time: 0 hr 14 min 43 sec) 
Heartbeat CPU 0 instructions: 160000002 cycles: 93020538 heartbeat IPC: 1.65443 cumulative IPC: 1.71433 (Simulation time: 0 hr 15 min 50 sec) 
Heartbeat CPU 0 instructions: 170000000 cycles: 98726472 heartbeat IPC: 1.75256 cumulative IPC: 1.71654 (Simulation time: 0 hr 17 min 3 sec) 
Heartbeat CPU 0 instructions: 180000000 cycles: 104427146 heartbeat IPC: 1.75418 cumulative IPC: 1.7186 (Simulation time: 0 hr 18 min 14 sec) 
Heartbeat CPU 0 instructions: 190000000 cycles: 110477055 heartbeat IPC: 1.65292 cumulative IPC: 1.715 (Simulation time: 0 hr 19 min 23 sec) 
Heartbeat CPU 0 instructions: 200000002 cycles: 116165845 heartbeat IPC: 1.75784 cumulative IPC: 1.7171 (Simulation time: 0 hr 20 min 31 sec) 
Heartbeat CPU 0 instructions: 210000000 cycles: 121866724 heartbeat IPC: 1.75412 cumulative IPC: 1.71884 (Simulation time: 0 hr 21 min 40 sec) 
Heartbeat CPU 0 instructions: 220000000 cycles: 127919161 heartbeat IPC: 1.65223 cumulative IPC: 1.71568 (Simulation time: 0 hr 22 min 48 sec) 
Heartbeat CPU 0 instructions: 230000002 cycles: 133627103 heartbeat IPC: 1.75195 cumulative IPC: 1.71723 (Simulation time: 0 hr 23 min 56 sec) 
Heartbeat CPU 0 instructions: 240000003 cycles: 139317434 heartbeat IPC: 1.75737 cumulative IPC: 1.71887 (Simulation time: 0 hr 25 min 2 sec) 
Heartbeat CPU 0 instructions: 250000003 cycles: 145378677 heartbeat IPC: 1.64983 cumulative IPC: 1.71599 (Simulation time: 0 hr 26 min 5 sec) 
Heartbeat CPU 0 instructions: 260000004 cycles: 151073945 heartbeat IPC: 1.75584 cumulative IPC: 1.71749 (Simulation time: 0 hr 27 min 7 sec) 
Heartbeat CPU 0 instructions: 270000000 cycles: 156762570 heartbeat IPC: 1.75789 cumulative IPC: 1.71896 (Simulation time: 0 hr 28 min 16 sec) 
Heartbeat CPU 0 instructions: 280000004 cycles: 162812340 heartbeat IPC: 1.65296 cumulative IPC: 1.71651 (Simulation time: 0 hr 29 min 24 sec) 
Heartbeat CPU 0 instructions: 290000004 cycles: 168506072 heartbeat IPC: 1.75632 cumulative IPC: 1.71785 (Simulation time: 0 hr 30 min 31 sec) 
Heartbeat CPU 0 instructions: 300000000 cycles: 174189367 heartbeat IPC: 1.75954 cumulative IPC: 1.71921 (Simulation time: 0 hr 31 min 39 sec) 
Heartbeat CPU 0 instructions: 310000002 cycles: 180247071 heartbeat IPC: 1.65079 cumulative IPC: 1.71691 (Simulation time: 0 hr 32 min 50 sec) 
Heartbeat CPU 0 instructions: 320000001 cycles: 185959170 heartbeat IPC: 1.75067 cumulative IPC: 1.71795 (Simulation time: 0 hr 33 min 59 sec) 
Heartbeat CPU 0 instructions: 330000004 cycles: 191656788 heartbeat IPC: 1.75512 cumulative IPC: 1.71906 (Simulation time: 0 hr 35 min 4 sec) 
Heartbeat CPU 0 instructions: 340000002 cycles: 197712680 heartbeat IPC: 1.65128 cumulative IPC: 1.71698 (Simulation time: 0 hr 36 min 11 sec) 
Heartbeat CPU 0 instructions: 350000004 cycles: 203421512 heartbeat IPC: 1.75167 cumulative IPC: 1.71795 (Simulation time: 0 hr 37 min 18 sec) 
Heartbeat CPU 0 instructions: 360000000 cycles: 209115414 heartbeat IPC: 1.75626 cumulative IPC: 1.719 (Simulation time: 0 hr 38 min 23 sec) 
Heartbeat CPU 0 instructions: 370000002 cycles: 215163456 heartbeat IPC: 1.65343 cumulative IPC: 1.71715 (Simulation time: 0 hr 39 min 31 sec) 
Heartbeat CPU 0 instructions: 380000000 cycles: 220872489 heartbeat IPC: 1.75161 cumulative IPC: 1.71804 (Simulation time: 0 hr 40 min 42 sec) 
Heartbeat CPU 0 instructions: 390000000 cycles: 226561330 heartbeat IPC: 1.75783 cumulative IPC: 1.71904 (Simulation time: 0 hr 41 min 50 sec) 
Heartbeat CPU 0 instructions: 400000003 cycles: 232611130 heartbeat IPC: 1.65295 cumulative IPC: 1.71732 (Simulation time: 0 hr 42 min 59 sec) 
Heartbeat CPU 0 instructions: 410000000 cycles: 238313604 heartbeat IPC: 1.75362 cumulative IPC: 1.71819 (Simulation time: 0 hr 44 min 5 sec) 
Heartbeat CPU 0 instructions: 420000000 cycles: 244001663 heartbeat IPC: 1.75807 cumulative IPC: 1.71912 (Simulation time: 0 hr 45 min 12 sec) 
Heartbeat CPU 0 instructions: 430000002 cycles: 250045490 heartbeat IPC: 1.65458 cumulative IPC: 1.71756 (Simulation time: 0 hr 46 min 19 sec) 
Heartbeat CPU 0 instructions: 440000001 cycles: 255758588 heartbeat IPC: 1.75036 cumulative IPC: 1.71829 (Simulation time: 0 hr 47 min 29 sec) 
Heartbeat CPU 0 instructions: 450000004 cycles: 261450732 heartbeat IPC: 1.75681 cumulative IPC: 1.71913 (Simulation time: 0 hr 48 min 37 sec) 
Heartbeat CPU 0 instructions: 460000003 cycles: 267495641 heartbeat IPC: 1.65428 cumulative IPC: 1.71767 (Simulation time: 0 hr 49 min 39 sec) 
Heartbeat CPU 0 instructions: 470000001 cycles: 273209284 heartbeat IPC: 1.7502 cumulative IPC: 1.71835 (Simulation time: 0 hr 50 min 38 sec) 
Heartbeat CPU 0 instructions: 480000000 cycles: 278907009 heartbeat IPC: 1.75509 cumulative IPC: 1.7191 (Simulation time: 0 hr 51 min 49 sec) 
Heartbeat CPU 0 instructions: 490000004 cycles: 284985656 heartbeat IPC: 1.6451 cumulative IPC: 1.71752 (Simulation time: 0 hr 52 min 56 sec) 
Heartbeat CPU 0 instructions: 500000000 cycles: 290701574 heartbeat IPC: 1.7495 cumulative IPC: 1.71815 (Simulation time: 0 hr 54 min 2 sec) 
Heartbeat CPU 0 instructions: 510000004 cycles: 296404613 heartbeat IPC: 1.75345 cumulative IPC: 1.71883 (Simulation time: 0 hr 55 min 7 sec) 
Heartbeat CPU 0 instructions: 520000003 cycles: 302458720 heartbeat IPC: 1.65177 cumulative IPC: 1.71749 (Simulation time: 0 hr 56 min 8 sec) 
Heartbeat CPU 0 instructions: 530000002 cycles: 308157926 heartbeat IPC: 1.75463 cumulative IPC: 1.71817 (Simulation time: 0 hr 57 min 7 sec) 
Heartbeat CPU 0 instructions: 540000000 cycles: 313855043 heartbeat IPC: 1.75527 cumulative IPC: 1.71885 (Simulation time: 0 hr 58 min 6 sec) 
Heartbeat CPU 0 instructions: 550000004 cycles: 319917451 heartbeat IPC: 1.64951 cumulative IPC: 1.71753 (Simulation time: 0 hr 59 min 5 sec) 
Heartbeat CPU 0 instructions: 560000001 cycles: 325633016 heartbeat IPC: 1.74961 cumulative IPC: 1.7181 (Simulation time: 1 hr 0 min 5 sec) 
Heartbeat CPU 0 instructions: 570000000 cycles: 331318657 heartbeat IPC: 1.75882 cumulative IPC: 1.71879 (Simulation time: 1 hr 1 min 4 sec) 
Heartbeat CPU 0 instructions: 580000003 cycles: 337361603 heartbeat IPC: 1.65482 cumulative IPC: 1.71765 (Simulation time: 1 hr 2 min 5 sec) 
Heartbeat CPU 0 instructions: 590000001 cycles: 343076659 heartbeat IPC: 1.74976 cumulative IPC: 1.71818 (Simulation time: 1 hr 3 min 4 sec) 
Heartbeat CPU 0 instructions: 600000001 cycles: 348751456 heartbeat IPC: 1.76218 cumulative IPC: 1.7189 (Simulation time: 1 hr 4 min 1 sec) 
Heartbeat CPU 0 instructions: 610000004 cycles: 354793940 heartbeat IPC: 1.65495 cumulative IPC: 1.71781 (Simulation time: 1 hr 4 min 58 sec) 
Heartbeat CPU 0 instructions: 620000004 cycles: 360506927 heartbeat IPC: 1.7504 cumulative IPC: 1.71833 (Simulation time: 1 hr 5 min 55 sec) 
Heartbeat CPU 0 instructions: 630000000 cycles: 366203812 heartbeat IPC: 1.75534 cumulative IPC: 1.7189 (Simulation time: 1 hr 6 min 52 sec) 
Heartbeat CPU 0 instructions: 640000003 cycles: 421005443 heartbeat IPC: 0.182476 cumulative IPC: 1.51878 (Simulation time: 1 hr 11 min 39 sec) 
Heartbeat CPU 0 instructions: 650000000 cycles: 457842759 heartbeat IPC: 0.271464 cumulative IPC: 1.41836 (Simulation time: 1 hr 14 min 49 sec) 
Heartbeat CPU 0 instructions: 660000002 cycles: 492682890 heartbeat IPC: 0.287025 cumulative IPC: 1.33832 (Simulation time: 1 hr 17 min 50 sec) 
Heartbeat CPU 0 instructions: 670000004 cycles: 498226897 heartbeat IPC: 1.80375 cumulative IPC: 1.3435 (Simulation time: 1 hr 18 min 39 sec) 
Heartbeat CPU 0 instructions: 680000004 cycles: 503737804 heartbeat IPC: 1.81458 cumulative IPC: 1.34865 (Simulation time: 1 hr 19 min 27 sec) 
Heartbeat CPU 0 instructions: 690000003 cycles: 508876036 heartbeat IPC: 1.94619 cumulative IPC: 1.35469 (Simulation time: 1 hr 20 min 10 sec) 
Heartbeat CPU 0 instructions: 700000004 cycles: 514301595 heartbeat IPC: 1.84313 cumulative IPC: 1.35985 (Simulation time: 1 hr 20 min 58 sec) 
Heartbeat CPU 0 instructions: 710000000 cycles: 519982773 heartbeat IPC: 1.7602 cumulative IPC: 1.36422 (Simulation time: 1 hr 21 min 48 sec) 
Heartbeat CPU 0 instructions: 720000002 cycles: 525069819 heartbeat IPC: 1.96578 cumulative IPC: 1.37005 (Simulation time: 1 hr 22 min 32 sec) 
Heartbeat CPU 0 instructions: 730000004 cycles: 530453200 heartbeat IPC: 1.85757 cumulative IPC: 1.375 (Simulation time: 1 hr 23 min 19 sec) 
Heartbeat CPU 0 instructions: 740000000 cycles: 536139107 heartbeat IPC: 1.75873 cumulative IPC: 1.37908 (Simulation time: 1 hr 24 min 8 sec) 
Heartbeat CPU 0 instructions: 750000004 cycles: 541267106 heartbeat IPC: 1.95008 cumulative IPC: 1.38449 (Simulation time: 1 hr 24 min 56 sec) 
Heartbeat CPU 0 instructions: 760000000 cycles: 546615109 heartbeat IPC: 1.86986 cumulative IPC: 1.38924 (Simulation time: 1 hr 25 min 42 sec) 
Heartbeat CPU 0 instructions: 770000002 cycles: 552317170 heartbeat IPC: 1.75375 cumulative IPC: 1.393 (Simulation time: 1 hr 26 min 30 sec) 
Heartbeat CPU 0 instructions: 780000001 cycles: 557503508 heartbeat IPC: 1.92814 cumulative IPC: 1.39798 (Simulation time: 1 hr 27 min 13 sec) 
Heartbeat CPU 0 instructions: 790000001 cycles: 562818706 heartbeat IPC: 1.8814 cumulative IPC: 1.40255 (Simulation time: 1 hr 27 min 56 sec) 
Heartbeat CPU 0 instructions: 800000003 cycles: 568539780 heartbeat IPC: 1.74792 cumulative IPC: 1.40603 (Simulation time: 1 hr 28 min 38 sec) 
Heartbeat CPU 0 instructions: 810000004 cycles: 573758011 heartbeat IPC: 1.91636 cumulative IPC: 1.41067 (Simulation time: 1 hr 29 min 16 sec) 
Heartbeat CPU 0 instructions: 820000001 cycles: 579011980 heartbeat IPC: 1.90332 cumulative IPC: 1.41515 (Simulation time: 1 hr 29 min 54 sec) 
Heartbeat CPU 0 instructions: 830000004 cycles: 584750896 heartbeat IPC: 1.74249 cumulative IPC: 1.41836 (Simulation time: 1 hr 30 min 34 sec) 
Heartbeat CPU 0 instructions: 840000000 cycles: 590005180 heartbeat IPC: 1.90321 cumulative IPC: 1.42268 (Simulation time: 1 hr 31 min 11 sec) 
Heartbeat CPU 0 instructions: 850000003 cycles: 595191560 heartbeat IPC: 1.92813 cumulative IPC: 1.42709 (Simulation time: 1 hr 31 min 48 sec) 
Heartbeat CPU 0 instructions: 860000000 cycles: 600922297 heartbeat IPC: 1.74498 cumulative IPC: 1.43012 (Simulation time: 1 hr 32 min 28 sec) 
Heartbeat CPU 0 instructions: 870000000 cycles: 606225240 heartbeat IPC: 1.88575 cumulative IPC: 1.43411 (Simulation time: 1 hr 33 min 5 sec) 
Heartbeat CPU 0 instructions: 880000002 cycles: 611378205 heartbeat IPC: 1.94063 cumulative IPC: 1.43838 (Simulation time: 1 hr 33 min 45 sec) 
Heartbeat CPU 0 instructions: 890000003 cycles: 617123601 heartbeat IPC: 1.74052 cumulative IPC: 1.44119 (Simulation time: 1 hr 34 min 24 sec) 
Heartbeat CPU 0 instructions: 900000001 cycles: 622471951 heartbeat IPC: 1.86974 cumulative IPC: 1.44488 (Simulation time: 1 hr 35 min 1 sec) 
Heartbeat CPU 0 instructions: 910000000 cycles: 627529262 heartbeat IPC: 1.97734 cumulative IPC: 1.44917 (Simulation time: 1 hr 35 min 38 sec) 
Heartbeat CPU 0 instructions: 920000001 cycles: 633291499 heartbeat IPC: 1.73544 cumulative IPC: 1.45177 (Simulation time: 1 hr 36 min 17 sec) 
Heartbeat CPU 0 instructions: 930000003 cycles: 638709325 heartbeat IPC: 1.84576 cumulative IPC: 1.45512 (Simulation time: 1 hr 36 min 54 sec) 
Heartbeat CPU 0 instructions: 940000000 cycles: 643741089 heartbeat IPC: 1.98737 cumulative IPC: 1.45928 (Simulation time: 1 hr 37 min 31 sec) 
Heartbeat CPU 0 instructions: 950000004 cycles: 649470388 heartbeat IPC: 1.74541 cumulative IPC: 1.4618 (Simulation time: 1 hr 38 min 9 sec) 
Heartbeat CPU 0 instructions: 960000001 cycles: 654910134 heartbeat IPC: 1.83832 cumulative IPC: 1.46493 (Simulation time: 1 hr 38 min 46 sec) 
Heartbeat CPU 0 instructions: 970000001 cycles: 659918855 heartbeat IPC: 1.99652 cumulative IPC: 1.46897 (Simulation time: 1 hr 39 min 22 sec) 
Heartbeat CPU 0 instructions: 980000002 cycles: 665633412 heartbeat IPC: 1.74992 cumulative IPC: 1.47138 (Simulation time: 1 hr 39 min 59 sec) 
Heartbeat CPU 0 instructions: 990000001 cycles: 671081030 heartbeat IPC: 1.83566 cumulative IPC: 1.47434 (Simulation time: 1 hr 40 min 36 sec) 
Heartbeat CPU 0 instructions: 1000000002 cycles: 676096185 heartbeat IPC: 1.99396 cumulative IPC: 1.4782 (Simulation time: 1 hr 41 min 12 sec) 
Finished CPU 0 instructions: 1000000000 cycles: 676315350 cumulative IPC: 1.4786 (Simulation time: 1 hr 41 min 16 sec) 

ChampSim completed all CPUs

Region of Interest Statistics

CPU 0 cumulative IPC: 1.4786 instructions: 1000000000 cycles: 676315350
cpu0_DTLB TOTAL     ACCESS:  205052358  HIT:  195680047  MISS:    9372311
cpu0_DTLB LOAD      ACCESS:  153019215  HIT:  144725090  MISS:    8294125
cpu0_DTLB RFO       ACCESS:   52033143  HIT:   50954957  MISS:    1078186
cpu0_DTLB PREFETCH  ACCESS:          0  HIT:          0  MISS:          0
cpu0_DTLB WRITEBACK ACCESS:          0  HIT:          0  MISS:          0
cpu0_DTLB TRANSLATION ACCESS:          0  HIT:          0  MISS:          0
cpu0_DTLB PREFETCH  REQUESTED:          0  ISSUED:          0  USEFUL:          0  USELESS:          0
cpu0_DTLB AVERAGE MISS LATENCY: 10.5323 cycles
cpu0_ITLB TOTAL     ACCESS:   15145966  HIT:   15145962  MISS:          4
cpu0_ITLB LOAD      ACCESS:   15145966  HIT:   15145962  MISS:          4
cpu0_ITLB RFO       ACCESS:          0  HIT:          0  MISS:          0
cpu0_ITLB PREFETCH  ACCESS:          0  HIT:          0  MISS:          0
cpu0_ITLB WRITEBACK ACCESS:          0  HIT:          0  MISS:          0
cpu0_ITLB TRANSLATION ACCESS:          0  HIT:          0  MISS:          0
cpu0_ITLB PREFETCH  REQUESTED:          0  ISSUED:          0  USEFUL:          0  USELESS:          0
cpu0_ITLB AVERAGE MISS LATENCY: 386.5 cycles
cpu0_L1I TOTAL     ACCESS:   28252778  HIT:   28252536  MISS:        242
cpu0_L1I LOAD      ACCESS:   28252778  HIT:   28252536  MISS:        242
cpu0_L1I RFO       ACCESS:          0  HIT:          0  MISS:          0
cpu0_L1I PREFETCH  ACCESS:          0  HIT:          0  MISS:          0
cpu0_L1I WRITEBACK ACCESS:          0  HIT:          0  MISS:          0
cpu0_L1I TRANSLATION ACCESS:          0  HIT:          0  MISS:          0
cpu0_L1I PREFETCH  REQUESTED:          0  ISSUED:          0  USEFUL:          0  USELESS:          0
cpu0_L1I AVERAGE MISS LATENCY: 559.785 cycles
cpu0_STLB TOTAL     ACCESS:    9372315  HIT:    9311340  MISS:      60975
cpu0_STLB LOAD      ACCESS:    8294129  HIT:    8239908  MISS:      54221
cpu0_STLB RFO       ACCESS:    1078186  HIT:    1071432  MISS:       6754
cpu0_STLB PREFETCH  ACCESS:          0  HIT:          0  MISS:          0
cpu0_STLB WRITEBACK ACCESS:          0  HIT:          0  MISS:          0
cpu0_STLB TRANSLATION ACCESS:          0  HIT:          0  MISS:          0
cpu0_STLB PREFETCH  REQUESTED:          0  ISSUED:          0  USEFUL:          0  USELESS:          0
cpu0_STLB AVERAGE MISS LATENCY: 224.414 cycles
cpu0_L1D TOTAL     ACCESS:  353397124  HIT:  322115497  MISS:   31281627
cpu0_L1D LOAD      ACCESS:  150188041  HIT:  137808313  MISS:   12379728
cpu0_L1D RFO       ACCESS:   68140276  HIT:   60395032  MISS:    7745244
cpu0_L1D PREFETCH  ACCESS:  135008507  HIT:  123873428  MISS:   11135079
cpu0_L1D WRITEBACK ACCESS:          0  HIT:          0  MISS:          0
cpu0_L1D TRANSLATION ACCESS:      60300  HIT:      38724  MISS:      21576
cpu0_L1D PREFETCH  REQUESTED:  154475348  ISSUED:  144386979  USEFUL:    7056208  USELESS:    5412647
cpu0_L1D AVERAGE MISS LATENCY: 41.7256 cycles
cpu0_L2C TOTAL     ACCESS:   44316129  HIT:   39537518  MISS:    4778611
cpu0_L2C LOAD      ACCESS:   11049870  HIT:   10660029  MISS:     389841
cpu0_L2C RFO       ACCESS:    7660441  HIT:    6623716  MISS:    1036725
cpu0_L2C PREFETCH  ACCESS:   14046955  HIT:   10706808  MISS:    3340147
cpu0_L2C WRITEBACK ACCESS:   11537287  HIT:   11528181  MISS:       9106
cpu0_L2C TRANSLATION ACCESS:      21576  HIT:      18784  MISS:       2792
cpu0_L2C PREFETCH  REQUESTED:    1585993  ISSUED:    1582817  USEFUL:      22054  USELESS:      16880
cpu0_L2C AVERAGE MISS LATENCY: 345.088 cycles
LLC TOTAL     ACCESS:    6383851  HIT:    3457336  MISS:    2926515
LLC LOAD      ACCESS:     389836  HIT:     197388  MISS:     192448
LLC RFO       ACCESS:    1036671  HIT:     594668  MISS:     442003
LLC PREFETCH  ACCESS:    3344144  HIT:    1071465  MISS:    2272679
LLC WRITEBACK ACCESS:    1610408  HIT:    1591084  MISS:      19324
LLC TRANSLATION ACCESS:       2792  HIT:       2731  MISS:         61
LLC PREFETCH  REQUESTED:          0  ISSUED:          0  USEFUL:          0  USELESS:          0
LLC AVERAGE MISS LATENCY: 521.24 cycles

DRAM Statistics
 CHANNEL 0
 RQ ROW_BUFFER_HIT:      71309  ROW_BUFFER_MISS:    2835853
 DBUS AVG_CONGESTED_CYCLE:    3.96501
 WQ ROW_BUFFER_HIT:     141858  ROW_BUFFER_MISS:     744062  FULL:          0


CPU 0 Branch Prediction Accuracy: 99.6905% MPKI: 0.177615 Average ROB Occupancy at Mispredict: 112.737
Branch type MPKI
BRANCH_DIRECT_JUMP: 3.1e-05
BRANCH_INDIRECT: 0
BRANCH_CONDITIONAL: 0.177582
BRANCH_DIRECT_CALL: 1e-06
BRANCH_INDIRECT_CALL: 0
BRANCH_RETURN: 1e-06

