
*** ChampSim Multicore Out-of-Order Simulator ***

Warmup Instructions: 1000000
Simulation Instructions: 1000000000
Number of CPUs: 1
Off-chip DRAM Size: 4 GiB Channels: 1 Width: 64-bit Data Rate: 3200 MT/s

VirtualMemory physical capacity: 8588881920 num_ppages: 2096895
VirtualMemory page size: 4096 log2_page_size: 12

CPU 0 runs tracer/pin/traces/spec2k17/603.bwaves_s-3699B.champsimtrace.xz
Basic BTB sets: 1024 ways: 8 indirect buffer size: 4096 RAS size: 64
cpu0_L1D next line prefetcher
cpu0_L2C IP-based stride prefetcher
WARNING: The extended signature CACHE::prefetch_line(ip, base_addr, pf_addr, fill_this_level, prefetch_metadata) is deprecated.
WARNING: Use CACHE::prefetch_line(pf_addr, fill_this_level, prefetch_metadata) instead.

Warmup complete CPU 0 instructions: 1000002 cycles: 274330 (Simulation time: 0 hr 0 min 3 sec) 

Heartbeat CPU 0 instructions: 10000004 cycles: 4874137 heartbeat IPC: 2.05165 cumulative IPC: 1.9566 (Simulation time: 0 hr 0 min 40 sec) 
Heartbeat CPU 0 instructions: 20000001 cycles: 10871889 heartbeat IPC: 1.66729 cumulative IPC: 1.79287 (Simulation time: 0 hr 1 min 34 sec) 
Heartbeat CPU 0 instructions: 30000002 cycles: 18170245 heartbeat IPC: 1.37017 cumulative IPC: 1.62048 (Simulation time: 0 hr 2 min 37 sec) 
Heartbeat CPU 0 instructions: 40000003 cycles: 23336290 heartbeat IPC: 1.93572 cumulative IPC: 1.6911 (Simulation time: 0 hr 3 min 19 sec) 
Heartbeat CPU 0 instructions: 50000000 cycles: 28494571 heartbeat IPC: 1.93863 cumulative IPC: 1.73634 (Simulation time: 0 hr 4 min 0 sec) 
Heartbeat CPU 0 instructions: 60000001 cycles: 33605898 heartbeat IPC: 1.95644 cumulative IPC: 1.77009 (Simulation time: 0 hr 4 min 42 sec) 
Heartbeat CPU 0 instructions: 70000003 cycles: 38740030 heartbeat IPC: 1.94775 cumulative IPC: 1.79381 (Simulation time: 0 hr 5 min 23 sec) 
Heartbeat CPU 0 instructions: 80000000 cycles: 43840793 heartbeat IPC: 1.96049 cumulative IPC: 1.81332 (Simulation time: 0 hr 6 min 5 sec) 
Heartbeat CPU 0 instructions: 90000004 cycles: 48981062 heartbeat IPC: 1.94542 cumulative IPC: 1.82726 (Simulation time: 0 hr 6 min 46 sec) 
Heartbeat CPU 0 instructions: 100000002 cycles: 54136693 heartbeat IPC: 1.93963 cumulative IPC: 1.83802 (Simulation time: 0 hr 7 min 27 sec) 
Heartbeat CPU 0 instructions: 110000000 cycles: 59390724 heartbeat IPC: 1.9033 cumulative IPC: 1.84382 (Simulation time: 0 hr 8 min 9 sec) 
Heartbeat CPU 0 instructions: 120000002 cycles: 64553149 heartbeat IPC: 1.93707 cumulative IPC: 1.85131 (Simulation time: 0 hr 8 min 50 sec) 
Heartbeat CPU 0 instructions: 130000004 cycles: 69867727 heartbeat IPC: 1.88162 cumulative IPC: 1.85362 (Simulation time: 0 hr 9 min 30 sec) 
Heartbeat CPU 0 instructions: 140000003 cycles: 75238492 heartbeat IPC: 1.86193 cumulative IPC: 1.85422 (Simulation time: 0 hr 10 min 12 sec) 
Heartbeat CPU 0 instructions: 150000000 cycles: 80515200 heartbeat IPC: 1.89512 cumulative IPC: 1.85691 (Simulation time: 0 hr 10 min 54 sec) 
Heartbeat CPU 0 instructions: 160000004 cycles: 85785819 heartbeat IPC: 1.89731 cumulative IPC: 1.8594 (Simulation time: 0 hr 11 min 36 sec) 
Heartbeat CPU 0 instructions: 170000000 cycles: 91131755 heartbeat IPC: 1.87058 cumulative IPC: 1.86006 (Simulation time: 0 hr 12 min 17 sec) 
Heartbeat CPU 0 instructions: 180000001 cycles: 96512282 heartbeat IPC: 1.85855 cumulative IPC: 1.85997 (Simulation time: 0 hr 12 min 59 sec) 
Heartbeat CPU 0 instructions: 190000000 cycles: 101857394 heartbeat IPC: 1.87087 cumulative IPC: 1.86055 (Simulation time: 0 hr 13 min 40 sec) 
Heartbeat CPU 0 instructions: 200000000 cycles: 107057568 heartbeat IPC: 1.92301 cumulative IPC: 1.86359 (Simulation time: 0 hr 14 min 20 sec) 
Heartbeat CPU 0 instructions: 210000003 cycles: 112368066 heartbeat IPC: 1.88306 cumulative IPC: 1.86451 (Simulation time: 0 hr 15 min 2 sec) 
Heartbeat CPU 0 instructions: 220000003 cycles: 117761858 heartbeat IPC: 1.85398 cumulative IPC: 1.86403 (Simulation time: 0 hr 15 min 45 sec) 
Heartbeat CPU 0 instructions: 230000001 cycles: 123056724 heartbeat IPC: 1.88862 cumulative IPC: 1.86509 (Simulation time: 0 hr 16 min 26 sec) 
Heartbeat CPU 0 instructions: 240000000 cycles: 128379540 heartbeat IPC: 1.8787 cumulative IPC: 1.86565 (Simulation time: 0 hr 17 min 8 sec) 
Heartbeat CPU 0 instructions: 250000001 cycles: 133642827 heartbeat IPC: 1.89995 cumulative IPC: 1.86701 (Simulation time: 0 hr 17 min 49 sec) 
Heartbeat CPU 0 instructions: 260000000 cycles: 138904816 heartbeat IPC: 1.90042 cumulative IPC: 1.86828 (Simulation time: 0 hr 18 min 30 sec) 
Heartbeat CPU 0 instructions: 270000002 cycles: 144229427 heartbeat IPC: 1.87807 cumulative IPC: 1.86864 (Simulation time: 0 hr 19 min 12 sec) 
Heartbeat CPU 0 instructions: 280000003 cycles: 149466411 heartbeat IPC: 1.9095 cumulative IPC: 1.87007 (Simulation time: 0 hr 19 min 54 sec) 
Heartbeat CPU 0 instructions: 290000002 cycles: 154733273 heartbeat IPC: 1.89866 cumulative IPC: 1.87105 (Simulation time: 0 hr 20 min 35 sec) 
Heartbeat CPU 0 instructions: 300000002 cycles: 160045385 heartbeat IPC: 1.88249 cumulative IPC: 1.87143 (Simulation time: 0 hr 21 min 15 sec) 
Heartbeat CPU 0 instructions: 310000001 cycles: 165275843 heartbeat IPC: 1.91188 cumulative IPC: 1.87271 (Simulation time: 0 hr 21 min 56 sec) 
Heartbeat CPU 0 instructions: 320000003 cycles: 170559903 heartbeat IPC: 1.89248 cumulative IPC: 1.87332 (Simulation time: 0 hr 22 min 35 sec) 
Heartbeat CPU 0 instructions: 330000003 cycles: 175893402 heartbeat IPC: 1.87494 cumulative IPC: 1.87337 (Simulation time: 0 hr 23 min 16 sec) 
Heartbeat CPU 0 instructions: 340000000 cycles: 181245363 heartbeat IPC: 1.86847 cumulative IPC: 1.87323 (Simulation time: 0 hr 23 min 56 sec) 
Heartbeat CPU 0 instructions: 350000002 cycles: 186562150 heartbeat IPC: 1.88084 cumulative IPC: 1.87345 (Simulation time: 0 hr 24 min 37 sec) 
Heartbeat CPU 0 instructions: 360000000 cycles: 191968646 heartbeat IPC: 1.84963 cumulative IPC: 1.87277 (Simulation time: 0 hr 25 min 18 sec) 
Heartbeat CPU 0 instructions: 370000001 cycles: 197210339 heartbeat IPC: 1.90778 cumulative IPC: 1.87371 (Simulation time: 0 hr 25 min 58 sec) 
Heartbeat CPU 0 instructions: 380000001 cycles: 202552335 heartbeat IPC: 1.87196 cumulative IPC: 1.87366 (Simulation time: 0 hr 26 min 38 sec) 
Heartbeat CPU 0 instructions: 390000002 cycles: 207842609 heartbeat IPC: 1.89026 cumulative IPC: 1.87408 (Simulation time: 0 hr 27 min 18 sec) 
Heartbeat CPU 0 instructions: 400000001 cycles: 213193508 heartbeat IPC: 1.86884 cumulative IPC: 1.87395 (Simulation time: 0 hr 28 min 0 sec) 
Heartbeat CPU 0 instructions: 410000001 cycles: 218496196 heartbeat IPC: 1.88584 cumulative IPC: 1.87424 (Simulation time: 0 hr 28 min 42 sec) 
Heartbeat CPU 0 instructions: 420000002 cycles: 223757216 heartbeat IPC: 1.90077 cumulative IPC: 1.87486 (Simulation time: 0 hr 29 min 23 sec) 
Heartbeat CPU 0 instructions: 430000000 cycles: 229060642 heartbeat IPC: 1.88557 cumulative IPC: 1.87511 (Simulation time: 0 hr 30 min 5 sec) 
Heartbeat CPU 0 instructions: 440000003 cycles: 234366874 heartbeat IPC: 1.88458 cumulative IPC: 1.87533 (Simulation time: 0 hr 30 min 47 sec) 
Heartbeat CPU 0 instructions: 450000002 cycles: 239577486 heartbeat IPC: 1.91916 cumulative IPC: 1.87628 (Simulation time: 0 hr 31 min 29 sec) 
Heartbeat CPU 0 instructions: 460000004 cycles: 244819901 heartbeat IPC: 1.90752 cumulative IPC: 1.87695 (Simulation time: 0 hr 32 min 11 sec) 
Heartbeat CPU 0 instructions: 470000003 cycles: 249917047 heartbeat IPC: 1.96188 cumulative IPC: 1.87868 (Simulation time: 0 hr 32 min 51 sec) 
Heartbeat CPU 0 instructions: 480000001 cycles: 255082517 heartbeat IPC: 1.93593 cumulative IPC: 1.87985 (Simulation time: 0 hr 33 min 31 sec) 
Heartbeat CPU 0 instructions: 490000003 cycles: 260185309 heartbeat IPC: 1.95971 cumulative IPC: 1.88141 (Simulation time: 0 hr 34 min 12 sec) 
Heartbeat CPU 0 instructions: 500000002 cycles: 265327486 heartbeat IPC: 1.9447 cumulative IPC: 1.88264 (Simulation time: 0 hr 34 min 54 sec) 
Heartbeat CPU 0 instructions: 510000002 cycles: 270432060 heartbeat IPC: 1.95903 cumulative IPC: 1.88408 (Simulation time: 0 hr 35 min 35 sec) 
Heartbeat CPU 0 instructions: 520000003 cycles: 275600773 heartbeat IPC: 1.93472 cumulative IPC: 1.88504 (Simulation time: 0 hr 36 min 18 sec) 
Heartbeat CPU 0 instructions: 530000000 cycles: 283866989 heartbeat IPC: 1.20974 cumulative IPC: 1.86535 (Simulation time: 0 hr 37 min 28 sec) 
Heartbeat CPU 0 instructions: 540000000 cycles: 291069399 heartbeat IPC: 1.38842 cumulative IPC: 1.85354 (Simulation time: 0 hr 38 min 29 sec) 
Heartbeat CPU 0 instructions: 550000003 cycles: 296175785 heartbeat IPC: 1.95833 cumulative IPC: 1.85535 (Simulation time: 0 hr 39 min 11 sec) 
Heartbeat CPU 0 instructions: 560000003 cycles: 301340014 heartbeat IPC: 1.9364 cumulative IPC: 1.85674 (Simulation time: 0 hr 39 min 53 sec) 
Heartbeat CPU 0 instructions: 570000001 cycles: 306446252 heartbeat IPC: 1.95839 cumulative IPC: 1.85843 (Simulation time: 0 hr 40 min 34 sec) 
Heartbeat CPU 0 instructions: 580000002 cycles: 311592969 heartbeat IPC: 1.94299 cumulative IPC: 1.85983 (Simulation time: 0 hr 41 min 15 sec) 
Heartbeat CPU 0 instructions: 590000000 cycles: 316692000 heartbeat IPC: 1.96116 cumulative IPC: 1.86146 (Simulation time: 0 hr 41 min 55 sec) 
Heartbeat CPU 0 instructions: 600000001 cycles: 321792356 heartbeat IPC: 1.96065 cumulative IPC: 1.86304 (Simulation time: 0 hr 42 min 36 sec) 
Heartbeat CPU 0 instructions: 610000000 cycles: 326911416 heartbeat IPC: 1.95348 cumulative IPC: 1.86445 (Simulation time: 0 hr 43 min 17 sec) 
Heartbeat CPU 0 instructions: 620000004 cycles: 332040632 heartbeat IPC: 1.94962 cumulative IPC: 1.86577 (Simulation time: 0 hr 43 min 59 sec) 
Heartbeat CPU 0 instructions: 630000004 cycles: 337184805 heartbeat IPC: 1.94395 cumulative IPC: 1.86696 (Simulation time: 0 hr 44 min 40 sec) 
Heartbeat CPU 0 instructions: 640000000 cycles: 342283007 heartbeat IPC: 1.96148 cumulative IPC: 1.86837 (Simulation time: 0 hr 45 min 20 sec) 
Heartbeat CPU 0 instructions: 650000001 cycles: 347431056 heartbeat IPC: 1.94248 cumulative IPC: 1.86947 (Simulation time: 0 hr 46 min 1 sec) 
Heartbeat CPU 0 instructions: 660000003 cycles: 352633766 heartbeat IPC: 1.92208 cumulative IPC: 1.87025 (Simulation time: 0 hr 46 min 44 sec) 
Heartbeat CPU 0 instructions: 670000002 cycles: 357892912 heartbeat IPC: 1.90145 cumulative IPC: 1.87071 (Simulation time: 0 hr 47 min 26 sec) 
Heartbeat CPU 0 instructions: 680000000 cycles: 363195168 heartbeat IPC: 1.88599 cumulative IPC: 1.87093 (Simulation time: 0 hr 48 min 7 sec) 
Heartbeat CPU 0 instructions: 690000000 cycles: 368466278 heartbeat IPC: 1.89713 cumulative IPC: 1.87131 (Simulation time: 0 hr 48 min 49 sec) 
Heartbeat CPU 0 instructions: 700000002 cycles: 373739306 heartbeat IPC: 1.89644 cumulative IPC: 1.87166 (Simulation time: 0 hr 49 min 32 sec) 
Heartbeat CPU 0 instructions: 710000004 cycles: 379033221 heartbeat IPC: 1.88896 cumulative IPC: 1.8719 (Simulation time: 0 hr 50 min 13 sec) 
Heartbeat CPU 0 instructions: 720000000 cycles: 384428152 heartbeat IPC: 1.85359 cumulative IPC: 1.87165 (Simulation time: 0 hr 50 min 54 sec) 
Heartbeat CPU 0 instructions: 730000001 cycles: 389742366 heartbeat IPC: 1.88175 cumulative IPC: 1.87178 (Simulation time: 0 hr 51 min 35 sec) 
Heartbeat CPU 0 instructions: 740000003 cycles: 395006566 heartbeat IPC: 1.89962 cumulative IPC: 1.87216 (Simulation time: 0 hr 52 min 16 sec) 
Heartbeat CPU 0 instructions: 750000002 cycles: 400361684 heartbeat IPC: 1.86737 cumulative IPC: 1.87209 (Simulation time: 0 hr 52 min 59 sec) 
Heartbeat CPU 0 instructions: 760000000 cycles: 405650728 heartbeat IPC: 1.8907 cumulative IPC: 1.87233 (Simulation time: 0 hr 53 min 41 sec) 
Heartbeat CPU 0 instructions: 770000000 cycles: 410898383 heartbeat IPC: 1.90561 cumulative IPC: 1.87276 (Simulation time: 0 hr 54 min 22 sec) 
Heartbeat CPU 0 instructions: 780000001 cycles: 416173143 heartbeat IPC: 1.89582 cumulative IPC: 1.87305 (Simulation time: 0 hr 55 min 3 sec) 
Heartbeat CPU 0 instructions: 790000000 cycles: 421411850 heartbeat IPC: 1.90887 cumulative IPC: 1.8735 (Simulation time: 0 hr 55 min 45 sec) 
Heartbeat CPU 0 instructions: 800000003 cycles: 426689726 heartbeat IPC: 1.8947 cumulative IPC: 1.87376 (Simulation time: 0 hr 56 min 27 sec) 
Heartbeat CPU 0 instructions: 810000002 cycles: 431972841 heartbeat IPC: 1.89282 cumulative IPC: 1.87399 (Simulation time: 0 hr 57 min 9 sec) 
Heartbeat CPU 0 instructions: 820000001 cycles: 437230709 heartbeat IPC: 1.90191 cumulative IPC: 1.87433 (Simulation time: 0 hr 57 min 48 sec) 
Heartbeat CPU 0 instructions: 830000000 cycles: 442447715 heartbeat IPC: 1.91681 cumulative IPC: 1.87483 (Simulation time: 0 hr 58 min 30 sec) 
Heartbeat CPU 0 instructions: 840000001 cycles: 447717603 heartbeat IPC: 1.89757 cumulative IPC: 1.8751 (Simulation time: 0 hr 59 min 11 sec) 
Heartbeat CPU 0 instructions: 850000002 cycles: 452937132 heartbeat IPC: 1.91588 cumulative IPC: 1.87557 (Simulation time: 0 hr 59 min 52 sec) 
Heartbeat CPU 0 instructions: 860000004 cycles: 458207835 heartbeat IPC: 1.89728 cumulative IPC: 1.87582 (Simulation time: 1 hr 0 min 34 sec) 
Heartbeat CPU 0 instructions: 870000000 cycles: 463443030 heartbeat IPC: 1.91015 cumulative IPC: 1.87621 (Simulation time: 1 hr 1 min 16 sec) 
Heartbeat CPU 0 instructions: 880000000 cycles: 468739156 heartbeat IPC: 1.88817 cumulative IPC: 1.87634 (Simulation time: 1 hr 1 min 57 sec) 
Heartbeat CPU 0 instructions: 890000000 cycles: 473975000 heartbeat IPC: 1.90991 cumulative IPC: 1.87671 (Simulation time: 1 hr 2 min 39 sec) 
Heartbeat CPU 0 instructions: 900000001 cycles: 479252258 heartbeat IPC: 1.89492 cumulative IPC: 1.87691 (Simulation time: 1 hr 3 min 22 sec) 
Heartbeat CPU 0 instructions: 910000000 cycles: 484580179 heartbeat IPC: 1.8769 cumulative IPC: 1.87691 (Simulation time: 1 hr 4 min 5 sec) 
Heartbeat CPU 0 instructions: 920000000 cycles: 489779351 heartbeat IPC: 1.92338 cumulative IPC: 1.87741 (Simulation time: 1 hr 4 min 46 sec) 
Heartbeat CPU 0 instructions: 930000000 cycles: 495015581 heartbeat IPC: 1.90977 cumulative IPC: 1.87775 (Simulation time: 1 hr 5 min 28 sec) 
Heartbeat CPU 0 instructions: 940000001 cycles: 500349468 heartbeat IPC: 1.87481 cumulative IPC: 1.87772 (Simulation time: 1 hr 6 min 9 sec) 
Heartbeat CPU 0 instructions: 950000002 cycles: 505698844 heartbeat IPC: 1.86938 cumulative IPC: 1.87763 (Simulation time: 1 hr 6 min 51 sec) 
Heartbeat CPU 0 instructions: 960000000 cycles: 510992647 heartbeat IPC: 1.889 cumulative IPC: 1.87775 (Simulation time: 1 hr 7 min 33 sec) 
Heartbeat CPU 0 instructions: 970000001 cycles: 516260343 heartbeat IPC: 1.89836 cumulative IPC: 1.87796 (Simulation time: 1 hr 8 min 14 sec) 
Heartbeat CPU 0 instructions: 980000003 cycles: 521685547 heartbeat IPC: 1.84325 cumulative IPC: 1.8776 (Simulation time: 1 hr 8 min 56 sec) 
Heartbeat CPU 0 instructions: 990000002 cycles: 526972700 heartbeat IPC: 1.89138 cumulative IPC: 1.87774 (Simulation time: 1 hr 9 min 38 sec) 
Heartbeat CPU 0 instructions: 1000000000 cycles: 532294726 heartbeat IPC: 1.87898 cumulative IPC: 1.87775 (Simulation time: 1 hr 10 min 20 sec) 
Finished CPU 0 instructions: 1000000002 cycles: 532570523 cumulative IPC: 1.87769 (Simulation time: 1 hr 10 min 24 sec) 

ChampSim completed all CPUs

Region of Interest Statistics

CPU 0 cumulative IPC: 1.87769 instructions: 1000000002 cycles: 532570523
cpu0_DTLB TOTAL     ACCESS:  144047567  HIT:  144044219  MISS:       3348
cpu0_DTLB LOAD      ACCESS:  121634894  HIT:  121634251  MISS:        643
cpu0_DTLB RFO       ACCESS:   22412673  HIT:   22409968  MISS:       2705
cpu0_DTLB PREFETCH  ACCESS:          0  HIT:          0  MISS:          0
cpu0_DTLB WRITEBACK ACCESS:          0  HIT:          0  MISS:          0
cpu0_DTLB TRANSLATION ACCESS:          0  HIT:          0  MISS:          0
cpu0_DTLB PREFETCH  REQUESTED:          0  ISSUED:          0  USEFUL:          0  USELESS:          0
cpu0_DTLB AVERAGE MISS LATENCY: 206.384 cycles
cpu0_ITLB TOTAL     ACCESS:  116681582  HIT:  116681582  MISS:          0
cpu0_ITLB LOAD      ACCESS:  116681582  HIT:  116681582  MISS:          0
cpu0_ITLB RFO       ACCESS:          0  HIT:          0  MISS:          0
cpu0_ITLB PREFETCH  ACCESS:          0  HIT:          0  MISS:          0
cpu0_ITLB WRITEBACK ACCESS:          0  HIT:          0  MISS:          0
cpu0_ITLB TRANSLATION ACCESS:          0  HIT:          0  MISS:          0
cpu0_ITLB PREFETCH  REQUESTED:          0  ISSUED:          0  USEFUL:          0  USELESS:          0
cpu0_ITLB AVERAGE MISS LATENCY: -nan cycles
cpu0_L1I TOTAL     ACCESS:    5877490  HIT:    5877473  MISS:         17
cpu0_L1I LOAD      ACCESS:    5877490  HIT:    5877473  MISS:         17
cpu0_L1I RFO       ACCESS:          0  HIT:          0  MISS:          0
cpu0_L1I PREFETCH  ACCESS:          0  HIT:          0  MISS:          0
cpu0_L1I WRITEBACK ACCESS:          0  HIT:          0  MISS:          0
cpu0_L1I TRANSLATION ACCESS:          0  HIT:          0  MISS:          0
cpu0_L1I PREFETCH  REQUESTED:          0  ISSUED:          0  USEFUL:          0  USELESS:          0
cpu0_L1I AVERAGE MISS LATENCY: 406.118 cycles
cpu0_STLB TOTAL     ACCESS:       3348  HIT:        148  MISS:       3200
cpu0_STLB LOAD      ACCESS:        643  HIT:        105  MISS:        538
cpu0_STLB RFO       ACCESS:       2705  HIT:         43  MISS:       2662
cpu0_STLB PREFETCH  ACCESS:          0  HIT:          0  MISS:          0
cpu0_STLB WRITEBACK ACCESS:          0  HIT:          0  MISS:          0
cpu0_STLB TRANSLATION ACCESS:          0  HIT:          0  MISS:          0
cpu0_STLB PREFETCH  REQUESTED:          0  ISSUED:          0  USEFUL:          0  USELESS:          0
cpu0_STLB AVERAGE MISS LATENCY: 206.512 cycles
cpu0_L1D TOTAL     ACCESS:  320795941  HIT:  320572585  MISS:     223356
cpu0_L1D LOAD      ACCESS:  142395498  HIT:  142386692  MISS:       8806
cpu0_L1D RFO       ACCESS:   38029848  HIT:   37852701  MISS:     177147
cpu0_L1D PREFETCH  ACCESS:  140367396  HIT:  140330263  MISS:      37133
cpu0_L1D WRITEBACK ACCESS:          0  HIT:          0  MISS:          0
cpu0_L1D TRANSLATION ACCESS:       3199  HIT:       2929  MISS:        270
cpu0_L1D PREFETCH  REQUESTED:  142417361  ISSUED:  140425298  USEFUL:      62441  USELESS:       1300
cpu0_L1D AVERAGE MISS LATENCY: 587.704 cycles
cpu0_L2C TOTAL     ACCESS:     382384  HIT:     176458  MISS:     205926
cpu0_L2C LOAD      ACCESS:       5385  HIT:       4522  MISS:        863
cpu0_L2C RFO       ACCESS:     153985  HIT:       6560  MISS:     147425
cpu0_L2C PREFETCH  ACCESS:      63734  HIT:       6346  MISS:      57388
cpu0_L2C WRITEBACK ACCESS:     159010  HIT:     158763  MISS:        247
cpu0_L2C TRANSLATION ACCESS:        270  HIT:        267  MISS:          3
cpu0_L2C PREFETCH  REQUESTED:          4  ISSUED:          4  USEFUL:          0  USELESS:          4
cpu0_L2C AVERAGE MISS LATENCY: 727.667 cycles
LLC TOTAL     ACCESS:     353358  HIT:     147062  MISS:     206296
LLC LOAD      ACCESS:        863  HIT:         48  MISS:        815
LLC RFO       ACCESS:     147425  HIT:          4  MISS:     147421
LLC PREFETCH  ACCESS:      57391  HIT:         71  MISS:      57320
LLC WRITEBACK ACCESS:     147676  HIT:     146939  MISS:        737
LLC TRANSLATION ACCESS:          3  HIT:          0  MISS:          3
LLC PREFETCH  REQUESTED:          0  ISSUED:          0  USEFUL:          0  USELESS:          0
LLC AVERAGE MISS LATENCY: 699.473 cycles

DRAM Statistics
 CHANNEL 0
 RQ ROW_BUFFER_HIT:       1671  ROW_BUFFER_MISS:     203888
 DBUS AVG_CONGESTED_CYCLE:    3.96871
 WQ ROW_BUFFER_HIT:       8532  ROW_BUFFER_MISS:     117491  FULL:          0


CPU 0 Branch Prediction Accuracy: 88.5151% MPKI: 16.6889 Average ROB Occupancy at Mispredict: 54.4879
Branch type MPKI
BRANCH_DIRECT_JUMP: 1e-05
BRANCH_INDIRECT: 2e-06
BRANCH_CONDITIONAL: 16.6888
BRANCH_DIRECT_CALL: 1e-06
BRANCH_INDIRECT_CALL: 0
BRANCH_RETURN: 3e-06

