
*** ChampSim Multicore Out-of-Order Simulator ***

Warmup Instructions: 1000000
Simulation Instructions: 1000000000
Number of CPUs: 1
Off-chip DRAM Size: 4 GiB Channels: 1 Width: 64-bit Data Rate: 3200 MT/s

VirtualMemory physical capacity: 8588881920 num_ppages: 2096895
VirtualMemory page size: 4096 log2_page_size: 12

CPU 0 runs tracer/pin/traces/spec2k17/619.lbm_s-4268B.champsimtrace.xz
Basic BTB sets: 1024 ways: 8 indirect buffer size: 4096 RAS size: 64
cpu0_L1D next line prefetcher
cpu0_L2C IP-based stride prefetcher
WARNING: The extended signature CACHE::prefetch_line(ip, base_addr, pf_addr, fill_this_level, prefetch_metadata) is deprecated.
WARNING: Use CACHE::prefetch_line(pf_addr, fill_this_level, prefetch_metadata) instead.

Warmup complete CPU 0 instructions: 1000003 cycles: 273200 (Simulation time: 0 hr 0 min 3 sec) 

Heartbeat CPU 0 instructions: 10000004 cycles: 77773179 heartbeat IPC: 0.128579 cumulative IPC: 0.116129 (Simulation time: 0 hr 4 min 39 sec) 
Heartbeat CPU 0 instructions: 20000001 cycles: 163894857 heartbeat IPC: 0.116115 cumulative IPC: 0.116122 (Simulation time: 0 hr 10 min 2 sec) 
Heartbeat CPU 0 instructions: 30000000 cycles: 249091317 heartbeat IPC: 0.117376 cumulative IPC: 0.116551 (Simulation time: 0 hr 16 min 8 sec) 
Heartbeat CPU 0 instructions: 40000002 cycles: 336005442 heartbeat IPC: 0.115056 cumulative IPC: 0.116164 (Simulation time: 0 hr 24 min 4 sec) 
Heartbeat CPU 0 instructions: 50000000 cycles: 423153545 heartbeat IPC: 0.114747 cumulative IPC: 0.115872 (Simulation time: 0 hr 32 min 46 sec) 
Heartbeat CPU 0 instructions: 60000003 cycles: 511536824 heartbeat IPC: 0.113144 cumulative IPC: 0.1154 (Simulation time: 0 hr 41 min 39 sec) 
Heartbeat CPU 0 instructions: 70000001 cycles: 599537916 heartbeat IPC: 0.113635 cumulative IPC: 0.115141 (Simulation time: 0 hr 50 min 28 sec) 
Heartbeat CPU 0 instructions: 80000002 cycles: 685732566 heartbeat IPC: 0.116016 cumulative IPC: 0.115251 (Simulation time: 0 hr 59 min 9 sec) 
Heartbeat CPU 0 instructions: 90000000 cycles: 773162134 heartbeat IPC: 0.114378 cumulative IPC: 0.115152 (Simulation time: 1 hr 8 min 1 sec) 
Heartbeat CPU 0 instructions: 100000004 cycles: 859391233 heartbeat IPC: 0.11597 cumulative IPC: 0.115234 (Simulation time: 1 hr 16 min 47 sec) 
Heartbeat CPU 0 instructions: 110000004 cycles: 946666852 heartbeat IPC: 0.11458 cumulative IPC: 0.115174 (Simulation time: 1 hr 25 min 30 sec) 
Heartbeat CPU 0 instructions: 120000000 cycles: 1035340448 heartbeat IPC: 0.112773 cumulative IPC: 0.114968 (Simulation time: 1 hr 34 min 17 sec) 
Heartbeat CPU 0 instructions: 130000001 cycles: 1121732600 heartbeat IPC: 0.115751 cumulative IPC: 0.115029 (Simulation time: 1 hr 42 min 22 sec) 
Heartbeat CPU 0 instructions: 140000001 cycles: 1208779407 heartbeat IPC: 0.114881 cumulative IPC: 0.115018 (Simulation time: 1 hr 49 min 53 sec) 
Heartbeat CPU 0 instructions: 150000001 cycles: 1297245183 heartbeat IPC: 0.113038 cumulative IPC: 0.114883 (Simulation time: 1 hr 56 min 34 sec) 
Heartbeat CPU 0 instructions: 160000001 cycles: 1386439776 heartbeat IPC: 0.112114 cumulative IPC: 0.114705 (Simulation time: 2 hr 2 min 51 sec) 
Heartbeat CPU 0 instructions: 170000001 cycles: 1474839907 heartbeat IPC: 0.113122 cumulative IPC: 0.11461 (Simulation time: 2 hr 9 min 19 sec) 
Heartbeat CPU 0 instructions: 180000004 cycles: 1563087465 heartbeat IPC: 0.113318 cumulative IPC: 0.114537 (Simulation time: 2 hr 16 min 57 sec) 
Heartbeat CPU 0 instructions: 190000004 cycles: 1651891216 heartbeat IPC: 0.112608 cumulative IPC: 0.114433 (Simulation time: 2 hr 25 min 23 sec) 
Heartbeat CPU 0 instructions: 200000002 cycles: 1740067168 heartbeat IPC: 0.11341 cumulative IPC: 0.114381 (Simulation time: 2 hr 33 min 30 sec) 
Heartbeat CPU 0 instructions: 210000001 cycles: 1830068872 heartbeat IPC: 0.111109 cumulative IPC: 0.11422 (Simulation time: 2 hr 41 min 7 sec) 
Heartbeat CPU 0 instructions: 220000001 cycles: 1919638341 heartbeat IPC: 0.111645 cumulative IPC: 0.1141 (Simulation time: 2 hr 48 min 5 sec) 
Heartbeat CPU 0 instructions: 230000002 cycles: 2008365486 heartbeat IPC: 0.112705 cumulative IPC: 0.114039 (Simulation time: 2 hr 54 min 42 sec) 
Heartbeat CPU 0 instructions: 240000000 cycles: 2097480493 heartbeat IPC: 0.112215 cumulative IPC: 0.113961 (Simulation time: 3 hr 1 min 20 sec) 
Heartbeat CPU 0 instructions: 250000003 cycles: 2184448082 heartbeat IPC: 0.114985 cumulative IPC: 0.114002 (Simulation time: 3 hr 7 min 52 sec) 
Heartbeat CPU 0 instructions: 260000000 cycles: 2271707985 heartbeat IPC: 0.1146 cumulative IPC: 0.114025 (Simulation time: 3 hr 14 min 0 sec) 
Heartbeat CPU 0 instructions: 270000003 cycles: 2358739420 heartbeat IPC: 0.114901 cumulative IPC: 0.114057 (Simulation time: 3 hr 19 min 45 sec) 
Heartbeat CPU 0 instructions: 280000001 cycles: 2444452292 heartbeat IPC: 0.116669 cumulative IPC: 0.114149 (Simulation time: 3 hr 25 min 0 sec) 
Heartbeat CPU 0 instructions: 290000001 cycles: 2531363172 heartbeat IPC: 0.11506 cumulative IPC: 0.11418 (Simulation time: 3 hr 30 min 13 sec) 
Heartbeat CPU 0 instructions: 300000001 cycles: 2619403776 heartbeat IPC: 0.113584 cumulative IPC: 0.11416 (Simulation time: 3 hr 35 min 24 sec) 
Heartbeat CPU 0 instructions: 310000004 cycles: 2707280185 heartbeat IPC: 0.113796 cumulative IPC: 0.114148 (Simulation time: 3 hr 40 min 33 sec) 
Heartbeat CPU 0 instructions: 320000001 cycles: 2794806163 heartbeat IPC: 0.114252 cumulative IPC: 0.114151 (Simulation time: 3 hr 45 min 43 sec) 
Heartbeat CPU 0 instructions: 330000000 cycles: 2881643564 heartbeat IPC: 0.115158 cumulative IPC: 0.114182 (Simulation time: 3 hr 50 min 50 sec) 
Heartbeat CPU 0 instructions: 340000003 cycles: 2967260266 heartbeat IPC: 0.1168 cumulative IPC: 0.114257 (Simulation time: 3 hr 55 min 52 sec) 
Heartbeat CPU 0 instructions: 350000002 cycles: 3051943400 heartbeat IPC: 0.118087 cumulative IPC: 0.114364 (Simulation time: 4 hr 0 min 52 sec) 
Heartbeat CPU 0 instructions: 360000002 cycles: 3138580913 heartbeat IPC: 0.115423 cumulative IPC: 0.114393 (Simulation time: 4 hr 5 min 58 sec) 
Heartbeat CPU 0 instructions: 370000002 cycles: 3223409196 heartbeat IPC: 0.117885 cumulative IPC: 0.114485 (Simulation time: 4 hr 10 min 59 sec) 
Heartbeat CPU 0 instructions: 380000000 cycles: 3309156994 heartbeat IPC: 0.116621 cumulative IPC: 0.11454 (Simulation time: 4 hr 16 min 2 sec) 
Heartbeat CPU 0 instructions: 390000003 cycles: 3394952238 heartbeat IPC: 0.116557 cumulative IPC: 0.114591 (Simulation time: 4 hr 21 min 5 sec) 
Heartbeat CPU 0 instructions: 400000000 cycles: 3479320141 heartbeat IPC: 0.118528 cumulative IPC: 0.114687 (Simulation time: 4 hr 26 min 3 sec) 
Heartbeat CPU 0 instructions: 410000002 cycles: 3565232055 heartbeat IPC: 0.116398 cumulative IPC: 0.114728 (Simulation time: 4 hr 31 min 7 sec) 
Heartbeat CPU 0 instructions: 420000004 cycles: 3651246936 heartbeat IPC: 0.116259 cumulative IPC: 0.114764 (Simulation time: 4 hr 36 min 11 sec) 
Heartbeat CPU 0 instructions: 430000000 cycles: 3739550550 heartbeat IPC: 0.113246 cumulative IPC: 0.114728 (Simulation time: 4 hr 41 min 22 sec) 
Heartbeat CPU 0 instructions: 440000000 cycles: 3827092072 heartbeat IPC: 0.114232 cumulative IPC: 0.114717 (Simulation time: 4 hr 46 min 31 sec) 
Heartbeat CPU 0 instructions: 450000001 cycles: 3912457929 heartbeat IPC: 0.117143 cumulative IPC: 0.11477 (Simulation time: 4 hr 51 min 33 sec) 
Heartbeat CPU 0 instructions: 460000002 cycles: 3995006782 heartbeat IPC: 0.12114 cumulative IPC: 0.114901 (Simulation time: 4 hr 56 min 25 sec) 
Heartbeat CPU 0 instructions: 470000002 cycles: 4077417180 heartbeat IPC: 0.121344 cumulative IPC: 0.115032 (Simulation time: 5 hr 1 min 17 sec) 
Heartbeat CPU 0 instructions: 480000004 cycles: 4156991903 heartbeat IPC: 0.125668 cumulative IPC: 0.115235 (Simulation time: 5 hr 6 min 0 sec) 
Heartbeat CPU 0 instructions: 490000002 cycles: 4232765319 heartbeat IPC: 0.131972 cumulative IPC: 0.115535 (Simulation time: 5 hr 10 min 30 sec) 
Heartbeat CPU 0 instructions: 500000000 cycles: 4305395112 heartbeat IPC: 0.137685 cumulative IPC: 0.115908 (Simulation time: 5 hr 14 min 49 sec) 
Heartbeat CPU 0 instructions: 510000003 cycles: 4375671720 heartbeat IPC: 0.142295 cumulative IPC: 0.116332 (Simulation time: 5 hr 19 min 1 sec) 
Heartbeat CPU 0 instructions: 520000003 cycles: 4442150020 heartbeat IPC: 0.150425 cumulative IPC: 0.116843 (Simulation time: 5 hr 23 min 1 sec) 
Heartbeat CPU 0 instructions: 530000001 cycles: 4505678490 heartbeat IPC: 0.15741 cumulative IPC: 0.117415 (Simulation time: 5 hr 26 min 50 sec) 
Heartbeat CPU 0 instructions: 540000003 cycles: 4567332607 heartbeat IPC: 0.162195 cumulative IPC: 0.118019 (Simulation time: 5 hr 30 min 34 sec) 
Heartbeat CPU 0 instructions: 550000004 cycles: 4625764720 heartbeat IPC: 0.171139 cumulative IPC: 0.11869 (Simulation time: 5 hr 34 min 6 sec) 
Heartbeat CPU 0 instructions: 560000001 cycles: 4684066742 heartbeat IPC: 0.171521 cumulative IPC: 0.119348 (Simulation time: 5 hr 37 min 39 sec) 
Heartbeat CPU 0 instructions: 570000003 cycles: 4739021394 heartbeat IPC: 0.181968 cumulative IPC: 0.120074 (Simulation time: 5 hr 41 min 0 sec) 
Heartbeat CPU 0 instructions: 580000000 cycles: 4793885942 heartbeat IPC: 0.182267 cumulative IPC: 0.120786 (Simulation time: 5 hr 44 min 21 sec) 
Heartbeat CPU 0 instructions: 590000003 cycles: 4846764107 heartbeat IPC: 0.189114 cumulative IPC: 0.121531 (Simulation time: 5 hr 47 min 35 sec) 
Heartbeat CPU 0 instructions: 600000004 cycles: 4898372706 heartbeat IPC: 0.193766 cumulative IPC: 0.122292 (Simulation time: 5 hr 50 min 45 sec) 
Heartbeat CPU 0 instructions: 610000002 cycles: 4948211872 heartbeat IPC: 0.200645 cumulative IPC: 0.123082 (Simulation time: 5 hr 53 min 50 sec) 
Heartbeat CPU 0 instructions: 620000003 cycles: 4998338812 heartbeat IPC: 0.199494 cumulative IPC: 0.123848 (Simulation time: 5 hr 56 min 55 sec) 
Heartbeat CPU 0 instructions: 630000004 cycles: 5047835747 heartbeat IPC: 0.202033 cumulative IPC: 0.124615 (Simulation time: 5 hr 59 min 58 sec) 
Heartbeat CPU 0 instructions: 640000002 cycles: 5096109921 heartbeat IPC: 0.20715 cumulative IPC: 0.125396 (Simulation time: 6 hr 2 min 57 sec) 
Heartbeat CPU 0 instructions: 650000001 cycles: 5144376823 heartbeat IPC: 0.207181 cumulative IPC: 0.126164 (Simulation time: 6 hr 5 min 55 sec) 
Heartbeat CPU 0 instructions: 660000002 cycles: 5191368227 heartbeat IPC: 0.212805 cumulative IPC: 0.126948 (Simulation time: 6 hr 8 min 50 sec) 
Heartbeat CPU 0 instructions: 670000001 cycles: 5238797979 heartbeat IPC: 0.210838 cumulative IPC: 0.127708 (Simulation time: 6 hr 11 min 46 sec) 
Heartbeat CPU 0 instructions: 680000004 cycles: 5285582339 heartbeat IPC: 0.213747 cumulative IPC: 0.128469 (Simulation time: 6 hr 14 min 40 sec) 
Heartbeat CPU 0 instructions: 690000001 cycles: 5332580835 heartbeat IPC: 0.212773 cumulative IPC: 0.129212 (Simulation time: 6 hr 17 min 35 sec) 
Heartbeat CPU 0 instructions: 700000000 cycles: 5379523434 heartbeat IPC: 0.213026 cumulative IPC: 0.129944 (Simulation time: 6 hr 20 min 29 sec) 
Heartbeat CPU 0 instructions: 710000002 cycles: 5426121037 heartbeat IPC: 0.214603 cumulative IPC: 0.130671 (Simulation time: 6 hr 23 min 23 sec) 
Heartbeat CPU 0 instructions: 720000000 cycles: 5472131634 heartbeat IPC: 0.217341 cumulative IPC: 0.1314 (Simulation time: 6 hr 26 min 14 sec) 
Heartbeat CPU 0 instructions: 730000004 cycles: 5518396765 heartbeat IPC: 0.216146 cumulative IPC: 0.13211 (Simulation time: 6 hr 29 min 6 sec) 
Heartbeat CPU 0 instructions: 740000003 cycles: 5564301947 heartbeat IPC: 0.21784 cumulative IPC: 0.132817 (Simulation time: 6 hr 31 min 57 sec) 
Heartbeat CPU 0 instructions: 750000004 cycles: 5610369910 heartbeat IPC: 0.217071 cumulative IPC: 0.133509 (Simulation time: 6 hr 34 min 49 sec) 
Heartbeat CPU 0 instructions: 760000001 cycles: 5655953487 heartbeat IPC: 0.219377 cumulative IPC: 0.134201 (Simulation time: 6 hr 37 min 39 sec) 
Heartbeat CPU 0 instructions: 770000002 cycles: 5701901590 heartbeat IPC: 0.217637 cumulative IPC: 0.134874 (Simulation time: 6 hr 40 min 30 sec) 
Heartbeat CPU 0 instructions: 780000003 cycles: 5747338873 heartbeat IPC: 0.220084 cumulative IPC: 0.135547 (Simulation time: 6 hr 43 min 20 sec) 
Heartbeat CPU 0 instructions: 790000004 cycles: 5793249968 heartbeat IPC: 0.217812 cumulative IPC: 0.136199 (Simulation time: 6 hr 46 min 11 sec) 
Heartbeat CPU 0 instructions: 800000001 cycles: 5838529964 heartbeat IPC: 0.220848 cumulative IPC: 0.136856 (Simulation time: 6 hr 49 min 0 sec) 
Heartbeat CPU 0 instructions: 810000002 cycles: 5884489943 heartbeat IPC: 0.217581 cumulative IPC: 0.137486 (Simulation time: 6 hr 51 min 51 sec) 
Heartbeat CPU 0 instructions: 820000003 cycles: 5930396272 heartbeat IPC: 0.217835 cumulative IPC: 0.138108 (Simulation time: 6 hr 54 min 42 sec) 
Heartbeat CPU 0 instructions: 830000000 cycles: 5975586002 heartbeat IPC: 0.221289 cumulative IPC: 0.138737 (Simulation time: 6 hr 57 min 31 sec) 
Heartbeat CPU 0 instructions: 840000001 cycles: 6021489325 heartbeat IPC: 0.217849 cumulative IPC: 0.139341 (Simulation time: 7 hr 0 min 22 sec) 
Heartbeat CPU 0 instructions: 850000003 cycles: 6066794414 heartbeat IPC: 0.220726 cumulative IPC: 0.139948 (Simulation time: 7 hr 3 min 11 sec) 
Heartbeat CPU 0 instructions: 860000004 cycles: 6112647871 heartbeat IPC: 0.218086 cumulative IPC: 0.140535 (Simulation time: 7 hr 6 min 2 sec) 
Heartbeat CPU 0 instructions: 870000001 cycles: 6157933496 heartbeat IPC: 0.220821 cumulative IPC: 0.141125 (Simulation time: 7 hr 8 min 51 sec) 
Heartbeat CPU 0 instructions: 880000002 cycles: 6203718275 heartbeat IPC: 0.218413 cumulative IPC: 0.141695 (Simulation time: 7 hr 11 min 42 sec) 
Heartbeat CPU 0 instructions: 890000004 cycles: 6249052539 heartbeat IPC: 0.220584 cumulative IPC: 0.142268 (Simulation time: 7 hr 14 min 31 sec) 
Heartbeat CPU 0 instructions: 900000000 cycles: 6294780130 heartbeat IPC: 0.218686 cumulative IPC: 0.142823 (Simulation time: 7 hr 17 min 22 sec) 
Heartbeat CPU 0 instructions: 910000002 cycles: 6340155031 heartbeat IPC: 0.220386 cumulative IPC: 0.143378 (Simulation time: 7 hr 20 min 12 sec) 
Heartbeat CPU 0 instructions: 920000003 cycles: 6386008606 heartbeat IPC: 0.218086 cumulative IPC: 0.143915 (Simulation time: 7 hr 23 min 3 sec) 
Heartbeat CPU 0 instructions: 930000000 cycles: 6431338529 heartbeat IPC: 0.220605 cumulative IPC: 0.144455 (Simulation time: 7 hr 25 min 52 sec) 
Heartbeat CPU 0 instructions: 940000002 cycles: 6479445014 heartbeat IPC: 0.207872 cumulative IPC: 0.144926 (Simulation time: 7 hr 28 min 50 sec) 
Heartbeat CPU 0 instructions: 950000000 cycles: 6597779928 heartbeat IPC: 0.0845059 cumulative IPC: 0.143842 (Simulation time: 7 hr 35 min 48 sec) 
Heartbeat CPU 0 instructions: 960000001 cycles: 6692924452 heartbeat IPC: 0.105103 cumulative IPC: 0.143291 (Simulation time: 7 hr 41 min 27 sec) 
Heartbeat CPU 0 instructions: 970000001 cycles: 6740794592 heartbeat IPC: 0.208898 cumulative IPC: 0.143757 (Simulation time: 7 hr 44 min 24 sec) 
Heartbeat CPU 0 instructions: 980000004 cycles: 6786102951 heartbeat IPC: 0.22071 cumulative IPC: 0.144271 (Simulation time: 7 hr 47 min 14 sec) 
Heartbeat CPU 0 instructions: 990000004 cycles: 6831933218 heartbeat IPC: 0.218196 cumulative IPC: 0.144767 (Simulation time: 7 hr 50 min 6 sec) 
Heartbeat CPU 0 instructions: 1000000001 cycles: 6877179920 heartbeat IPC: 0.221011 cumulative IPC: 0.145269 (Simulation time: 7 hr 52 min 55 sec) 
Finished CPU 0 instructions: 1000000002 cycles: 6881423548 cumulative IPC: 0.145319 (Simulation time: 7 hr 53 min 12 sec) 

ChampSim completed all CPUs

Region of Interest Statistics

CPU 0 cumulative IPC: 0.145319 instructions: 1000000002 cycles: 6881423548
cpu0_DTLB TOTAL     ACCESS:  179546502  HIT:  178510775  MISS:    1035727
cpu0_DTLB LOAD      ACCESS:   94599989  HIT:   94459290  MISS:     140699
cpu0_DTLB RFO       ACCESS:   84946513  HIT:   84051485  MISS:     895028
cpu0_DTLB PREFETCH  ACCESS:          0  HIT:          0  MISS:          0
cpu0_DTLB WRITEBACK ACCESS:          0  HIT:          0  MISS:          0
cpu0_DTLB TRANSLATION ACCESS:          0  HIT:          0  MISS:          0
cpu0_DTLB PREFETCH  REQUESTED:          0  ISSUED:          0  USEFUL:          0  USELESS:          0
cpu0_DTLB AVERAGE MISS LATENCY: 505.727 cycles
cpu0_ITLB TOTAL     ACCESS:   10131250  HIT:   10131249  MISS:          1
cpu0_ITLB LOAD      ACCESS:   10131250  HIT:   10131249  MISS:          1
cpu0_ITLB RFO       ACCESS:          0  HIT:          0  MISS:          0
cpu0_ITLB PREFETCH  ACCESS:          0  HIT:          0  MISS:          0
cpu0_ITLB WRITEBACK ACCESS:          0  HIT:          0  MISS:          0
cpu0_ITLB TRANSLATION ACCESS:          0  HIT:          0  MISS:          0
cpu0_ITLB PREFETCH  REQUESTED:          0  ISSUED:          0  USEFUL:          0  USELESS:          0
cpu0_ITLB AVERAGE MISS LATENCY: 1104 cycles
cpu0_L1I TOTAL     ACCESS:   26412093  HIT:   26412090  MISS:          3
cpu0_L1I LOAD      ACCESS:   26412093  HIT:   26412090  MISS:          3
cpu0_L1I RFO       ACCESS:          0  HIT:          0  MISS:          0
cpu0_L1I PREFETCH  ACCESS:          0  HIT:          0  MISS:          0
cpu0_L1I WRITEBACK ACCESS:          0  HIT:          0  MISS:          0
cpu0_L1I TRANSLATION ACCESS:          0  HIT:          0  MISS:          0
cpu0_L1I PREFETCH  REQUESTED:          0  ISSUED:          0  USEFUL:          0  USELESS:          0
cpu0_L1I AVERAGE MISS LATENCY: 423.667 cycles
cpu0_STLB TOTAL     ACCESS:    1035728  HIT:     473069  MISS:     562659
cpu0_STLB LOAD      ACCESS:     140700  HIT:          1  MISS:     140699
cpu0_STLB RFO       ACCESS:     895028  HIT:     473068  MISS:     421960
cpu0_STLB PREFETCH  ACCESS:          0  HIT:          0  MISS:          0
cpu0_STLB WRITEBACK ACCESS:          0  HIT:          0  MISS:          0
cpu0_STLB TRANSLATION ACCESS:          0  HIT:          0  MISS:          0
cpu0_STLB PREFETCH  REQUESTED:          0  ISSUED:          0  USEFUL:          0  USELESS:          0
cpu0_STLB AVERAGE MISS LATENCY: 914.224 cycles
cpu0_L1D TOTAL     ACCESS:  346872883  HIT:  287208901  MISS:   59663982
cpu0_L1D LOAD      ACCESS:   96002894  HIT:   89127696  MISS:    6875198
cpu0_L1D RFO       ACCESS:  167211702  HIT:  116799186  MISS:   50412516
cpu0_L1D PREFETCH  ACCESS:   83127463  HIT:   80836613  MISS:    2290850
cpu0_L1D WRITEBACK ACCESS:          0  HIT:          0  MISS:          0
cpu0_L1D TRANSLATION ACCESS:     530824  HIT:     445406  MISS:      85418
cpu0_L1D PREFETCH  REQUESTED:   97404680  ISSUED:   90716693  USEFUL:    2429895  USELESS:      86506
cpu0_L1D AVERAGE MISS LATENCY: 792.168 cycles
cpu0_L2C TOTAL     ACCESS:  113018549  HIT:   67411454  MISS:   45607095
cpu0_L2C LOAD      ACCESS:    6650398  HIT:       4202  MISS:    6646196
cpu0_L2C RFO       ACCESS:   50411183  HIT:   14391454  MISS:   36019729
cpu0_L2C PREFETCH  ACCESS:    5458972  HIT:    2530563  MISS:    2928409
cpu0_L2C WRITEBACK ACCESS:   50412578  HIT:   50401637  MISS:      10941
cpu0_L2C TRANSLATION ACCESS:      85418  HIT:      83598  MISS:       1820
cpu0_L2C PREFETCH  REQUESTED:    3448117  ISSUED:    3181796  USEFUL:     368890  USELESS:      52638
cpu0_L2C AVERAGE MISS LATENCY: 1037.53 cycles
LLC TOTAL     ACCESS:   81686540  HIT:   45059247  MISS:   36627293
LLC LOAD      ACCESS:    6646196  HIT:       5400  MISS:    6640796
LLC RFO       ACCESS:   36000456  HIT:    8998071  MISS:   27002385
LLC PREFETCH  ACCESS:    3007862  HIT:      67900  MISS:    2939962
LLC WRITEBACK ACCESS:   36030206  HIT:   35986664  MISS:      43542
LLC TRANSLATION ACCESS:       1820  HIT:       1212  MISS:        608
LLC PREFETCH  REQUESTED:          0  ISSUED:          0  USEFUL:          0  USELESS:          0
LLC AVERAGE MISS LATENCY: 1261.84 cycles

DRAM Statistics
 CHANNEL 0
 RQ ROW_BUFFER_HIT:     366665  ROW_BUFFER_MISS:   36216792
 DBUS AVG_CONGESTED_CYCLE:     3.9992
 WQ ROW_BUFFER_HIT:     104835  ROW_BUFFER_MISS:   26900414  FULL:          0


CPU 0 Branch Prediction Accuracy: 98.1434% MPKI: 0.27779 Average ROB Occupancy at Mispredict: 124.832
Branch type MPKI
BRANCH_DIRECT_JUMP: 3e-06
BRANCH_INDIRECT: 0
BRANCH_CONDITIONAL: 0.277783
BRANCH_DIRECT_CALL: 2e-06
BRANCH_INDIRECT_CALL: 0
BRANCH_RETURN: 2e-06

