
*** ChampSim Multicore Out-of-Order Simulator ***

Warmup Instructions: 1000000
Simulation Instructions: 1000000000
Number of CPUs: 1
Off-chip DRAM Size: 4 GiB Channels: 1 Width: 64-bit Data Rate: 3200 MT/s

VirtualMemory physical capacity: 8588881920 num_ppages: 2096895
VirtualMemory page size: 4096 log2_page_size: 12

CPU 0 runs tracer/pin/traces/spec2k17/644.nab_s-5853B.champsimtrace.xz
Basic BTB sets: 1024 ways: 8 indirect buffer size: 4096 RAS size: 64
cpu0_L1D next line prefetcher
cpu0_L2C IP-based stride prefetcher
WARNING: The extended signature CACHE::prefetch_line(ip, base_addr, pf_addr, fill_this_level, prefetch_metadata) is deprecated.
WARNING: Use CACHE::prefetch_line(pf_addr, fill_this_level, prefetch_metadata) instead.

Warmup complete CPU 0 instructions: 1000004 cycles: 250095 (Simulation time: 0 hr 0 min 3 sec) 

Heartbeat CPU 0 instructions: 10000001 cycles: 6605555 heartbeat IPC: 1.51388 cumulative IPC: 1.4161 (Simulation time: 0 hr 0 min 50 sec) 
Heartbeat CPU 0 instructions: 20000001 cycles: 13686263 heartbeat IPC: 1.41229 cumulative IPC: 1.41409 (Simulation time: 0 hr 1 min 45 sec) 
Heartbeat CPU 0 instructions: 30000001 cycles: 20737275 heartbeat IPC: 1.41824 cumulative IPC: 1.41552 (Simulation time: 0 hr 2 min 36 sec) 
Heartbeat CPU 0 instructions: 40000002 cycles: 27798450 heartbeat IPC: 1.4162 cumulative IPC: 1.41569 (Simulation time: 0 hr 3 min 27 sec) 
Heartbeat CPU 0 instructions: 50000004 cycles: 34863562 heartbeat IPC: 1.41541 cumulative IPC: 1.41563 (Simulation time: 0 hr 4 min 20 sec) 
Heartbeat CPU 0 instructions: 60000000 cycles: 41941345 heartbeat IPC: 1.41287 cumulative IPC: 1.41516 (Simulation time: 0 hr 5 min 11 sec) 
Heartbeat CPU 0 instructions: 70000000 cycles: 48992871 heartbeat IPC: 1.41813 cumulative IPC: 1.41559 (Simulation time: 0 hr 6 min 4 sec) 
Heartbeat CPU 0 instructions: 80000003 cycles: 56051784 heartbeat IPC: 1.41665 cumulative IPC: 1.41573 (Simulation time: 0 hr 6 min 58 sec) 
Heartbeat CPU 0 instructions: 90000002 cycles: 63118572 heartbeat IPC: 1.41507 cumulative IPC: 1.41565 (Simulation time: 0 hr 7 min 52 sec) 
Heartbeat CPU 0 instructions: 100000000 cycles: 70187128 heartbeat IPC: 1.41472 cumulative IPC: 1.41556 (Simulation time: 0 hr 8 min 46 sec) 
Heartbeat CPU 0 instructions: 110000000 cycles: 77244136 heartbeat IPC: 1.41703 cumulative IPC: 1.41569 (Simulation time: 0 hr 9 min 41 sec) 
Heartbeat CPU 0 instructions: 120000004 cycles: 84297249 heartbeat IPC: 1.41781 cumulative IPC: 1.41587 (Simulation time: 0 hr 10 min 35 sec) 
Heartbeat CPU 0 instructions: 130000004 cycles: 91339788 heartbeat IPC: 1.41994 cumulative IPC: 1.41619 (Simulation time: 0 hr 11 min 30 sec) 
Heartbeat CPU 0 instructions: 140000001 cycles: 98374906 heartbeat IPC: 1.42144 cumulative IPC: 1.41656 (Simulation time: 0 hr 12 min 25 sec) 
Heartbeat CPU 0 instructions: 150000004 cycles: 105417326 heartbeat IPC: 1.41997 cumulative IPC: 1.41679 (Simulation time: 0 hr 13 min 23 sec) 
Heartbeat CPU 0 instructions: 160000000 cycles: 112480158 heartbeat IPC: 1.41586 cumulative IPC: 1.41673 (Simulation time: 0 hr 14 min 20 sec) 
Heartbeat CPU 0 instructions: 170000004 cycles: 119553363 heartbeat IPC: 1.41379 cumulative IPC: 1.41656 (Simulation time: 0 hr 15 min 18 sec) 
Heartbeat CPU 0 instructions: 180000003 cycles: 126609132 heartbeat IPC: 1.41728 cumulative IPC: 1.4166 (Simulation time: 0 hr 16 min 17 sec) 
Heartbeat CPU 0 instructions: 190000001 cycles: 133679058 heartbeat IPC: 1.41444 cumulative IPC: 1.41648 (Simulation time: 0 hr 17 min 16 sec) 
Heartbeat CPU 0 instructions: 200000004 cycles: 140728793 heartbeat IPC: 1.41849 cumulative IPC: 1.41658 (Simulation time: 0 hr 18 min 13 sec) 
Heartbeat CPU 0 instructions: 210000002 cycles: 147780549 heartbeat IPC: 1.41809 cumulative IPC: 1.41666 (Simulation time: 0 hr 19 min 14 sec) 
Heartbeat CPU 0 instructions: 220000003 cycles: 154858840 heartbeat IPC: 1.41277 cumulative IPC: 1.41648 (Simulation time: 0 hr 20 min 14 sec) 
Heartbeat CPU 0 instructions: 230000001 cycles: 161906573 heartbeat IPC: 1.4189 cumulative IPC: 1.41658 (Simulation time: 0 hr 21 min 14 sec) 
Heartbeat CPU 0 instructions: 240000001 cycles: 168971388 heartbeat IPC: 1.41547 cumulative IPC: 1.41654 (Simulation time: 0 hr 22 min 12 sec) 
Heartbeat CPU 0 instructions: 250000002 cycles: 176061397 heartbeat IPC: 1.41044 cumulative IPC: 1.41629 (Simulation time: 0 hr 23 min 11 sec) 
Heartbeat CPU 0 instructions: 260000000 cycles: 183131453 heartbeat IPC: 1.41442 cumulative IPC: 1.41622 (Simulation time: 0 hr 24 min 7 sec) 
Heartbeat CPU 0 instructions: 270000002 cycles: 190178076 heartbeat IPC: 1.41912 cumulative IPC: 1.41633 (Simulation time: 0 hr 25 min 3 sec) 
Heartbeat CPU 0 instructions: 280000002 cycles: 197226830 heartbeat IPC: 1.41869 cumulative IPC: 1.41641 (Simulation time: 0 hr 25 min 58 sec) 
Heartbeat CPU 0 instructions: 290000000 cycles: 204281351 heartbeat IPC: 1.41753 cumulative IPC: 1.41645 (Simulation time: 0 hr 26 min 55 sec) 
Heartbeat CPU 0 instructions: 300000000 cycles: 211342218 heartbeat IPC: 1.41626 cumulative IPC: 1.41644 (Simulation time: 0 hr 27 min 51 sec) 
Heartbeat CPU 0 instructions: 310000004 cycles: 218434400 heartbeat IPC: 1.41 cumulative IPC: 1.41623 (Simulation time: 0 hr 28 min 47 sec) 
Heartbeat CPU 0 instructions: 320000001 cycles: 225524792 heartbeat IPC: 1.41036 cumulative IPC: 1.41605 (Simulation time: 0 hr 29 min 44 sec) 
Heartbeat CPU 0 instructions: 330000000 cycles: 232690250 heartbeat IPC: 1.39558 cumulative IPC: 1.41542 (Simulation time: 0 hr 30 min 37 sec) 
Heartbeat CPU 0 instructions: 340000000 cycles: 239783152 heartbeat IPC: 1.40986 cumulative IPC: 1.41525 (Simulation time: 0 hr 31 min 31 sec) 
Heartbeat CPU 0 instructions: 350000000 cycles: 246883909 heartbeat IPC: 1.4083 cumulative IPC: 1.41505 (Simulation time: 0 hr 32 min 26 sec) 
Heartbeat CPU 0 instructions: 360000003 cycles: 253961904 heartbeat IPC: 1.41283 cumulative IPC: 1.41499 (Simulation time: 0 hr 33 min 18 sec) 
Heartbeat CPU 0 instructions: 370000003 cycles: 261049401 heartbeat IPC: 1.41094 cumulative IPC: 1.41488 (Simulation time: 0 hr 34 min 13 sec) 
Heartbeat CPU 0 instructions: 380000004 cycles: 268129516 heartbeat IPC: 1.41241 cumulative IPC: 1.41482 (Simulation time: 0 hr 35 min 8 sec) 
Heartbeat CPU 0 instructions: 390000004 cycles: 275196842 heartbeat IPC: 1.41496 cumulative IPC: 1.41482 (Simulation time: 0 hr 36 min 2 sec) 
Heartbeat CPU 0 instructions: 400000002 cycles: 282253987 heartbeat IPC: 1.417 cumulative IPC: 1.41487 (Simulation time: 0 hr 36 min 56 sec) 
Heartbeat CPU 0 instructions: 410000003 cycles: 289309799 heartbeat IPC: 1.41727 cumulative IPC: 1.41493 (Simulation time: 0 hr 37 min 53 sec) 
Heartbeat CPU 0 instructions: 420000000 cycles: 296385724 heartbeat IPC: 1.41324 cumulative IPC: 1.41489 (Simulation time: 0 hr 38 min 45 sec) 
Heartbeat CPU 0 instructions: 430000001 cycles: 303458890 heartbeat IPC: 1.41379 cumulative IPC: 1.41487 (Simulation time: 0 hr 39 min 39 sec) 
Heartbeat CPU 0 instructions: 440000002 cycles: 310554747 heartbeat IPC: 1.40927 cumulative IPC: 1.41474 (Simulation time: 0 hr 40 min 33 sec) 
Heartbeat CPU 0 instructions: 450000002 cycles: 317651992 heartbeat IPC: 1.409 cumulative IPC: 1.41461 (Simulation time: 0 hr 41 min 28 sec) 
Heartbeat CPU 0 instructions: 460000003 cycles: 324760832 heartbeat IPC: 1.4067 cumulative IPC: 1.41444 (Simulation time: 0 hr 42 min 21 sec) 
Heartbeat CPU 0 instructions: 470000003 cycles: 331892046 heartbeat IPC: 1.40229 cumulative IPC: 1.41418 (Simulation time: 0 hr 43 min 16 sec) 
Heartbeat CPU 0 instructions: 480000001 cycles: 339021853 heartbeat IPC: 1.40256 cumulative IPC: 1.41393 (Simulation time: 0 hr 44 min 9 sec) 
Heartbeat CPU 0 instructions: 490000003 cycles: 346136937 heartbeat IPC: 1.40547 cumulative IPC: 1.41376 (Simulation time: 0 hr 45 min 1 sec) 
Heartbeat CPU 0 instructions: 500000000 cycles: 353295644 heartbeat IPC: 1.3969 cumulative IPC: 1.41342 (Simulation time: 0 hr 45 min 53 sec) 
Heartbeat CPU 0 instructions: 510000000 cycles: 360451170 heartbeat IPC: 1.39752 cumulative IPC: 1.4131 (Simulation time: 0 hr 46 min 46 sec) 
Heartbeat CPU 0 instructions: 520000000 cycles: 367643702 heartbeat IPC: 1.39033 cumulative IPC: 1.41265 (Simulation time: 0 hr 47 min 39 sec) 
Heartbeat CPU 0 instructions: 530000003 cycles: 374788449 heartbeat IPC: 1.39963 cumulative IPC: 1.41241 (Simulation time: 0 hr 48 min 33 sec) 
Heartbeat CPU 0 instructions: 540000003 cycles: 381906224 heartbeat IPC: 1.40493 cumulative IPC: 1.41227 (Simulation time: 0 hr 49 min 25 sec) 
Heartbeat CPU 0 instructions: 550000002 cycles: 389037953 heartbeat IPC: 1.40218 cumulative IPC: 1.41208 (Simulation time: 0 hr 50 min 19 sec) 
Heartbeat CPU 0 instructions: 560000001 cycles: 396159150 heartbeat IPC: 1.40426 cumulative IPC: 1.41194 (Simulation time: 0 hr 51 min 11 sec) 
Heartbeat CPU 0 instructions: 570000002 cycles: 403288303 heartbeat IPC: 1.40269 cumulative IPC: 1.41178 (Simulation time: 0 hr 52 min 3 sec) 
Heartbeat CPU 0 instructions: 580000000 cycles: 410379423 heartbeat IPC: 1.41021 cumulative IPC: 1.41175 (Simulation time: 0 hr 52 min 53 sec) 
Heartbeat CPU 0 instructions: 590000001 cycles: 417536559 heartbeat IPC: 1.39721 cumulative IPC: 1.4115 (Simulation time: 0 hr 53 min 46 sec) 
Heartbeat CPU 0 instructions: 600000003 cycles: 424643642 heartbeat IPC: 1.40705 cumulative IPC: 1.41143 (Simulation time: 0 hr 54 min 36 sec) 
Heartbeat CPU 0 instructions: 610000001 cycles: 431776171 heartbeat IPC: 1.40203 cumulative IPC: 1.41127 (Simulation time: 0 hr 55 min 29 sec) 
Heartbeat CPU 0 instructions: 620000000 cycles: 438891983 heartbeat IPC: 1.40532 cumulative IPC: 1.41117 (Simulation time: 0 hr 56 min 17 sec) 
Heartbeat CPU 0 instructions: 630000002 cycles: 446045801 heartbeat IPC: 1.39786 cumulative IPC: 1.41096 (Simulation time: 0 hr 57 min 7 sec) 
Heartbeat CPU 0 instructions: 640000000 cycles: 453179976 heartbeat IPC: 1.4017 cumulative IPC: 1.41081 (Simulation time: 0 hr 57 min 58 sec) 
Heartbeat CPU 0 instructions: 650000002 cycles: 460314208 heartbeat IPC: 1.40169 cumulative IPC: 1.41067 (Simulation time: 0 hr 58 min 49 sec) 
Heartbeat CPU 0 instructions: 660000000 cycles: 467470122 heartbeat IPC: 1.39745 cumulative IPC: 1.41047 (Simulation time: 0 hr 59 min 39 sec) 
Heartbeat CPU 0 instructions: 670000004 cycles: 474650152 heartbeat IPC: 1.39275 cumulative IPC: 1.4102 (Simulation time: 1 hr 0 min 30 sec) 
Heartbeat CPU 0 instructions: 680000000 cycles: 481830736 heartbeat IPC: 1.39264 cumulative IPC: 1.40994 (Simulation time: 1 hr 1 min 24 sec) 
Heartbeat CPU 0 instructions: 690000001 cycles: 488979442 heartbeat IPC: 1.39885 cumulative IPC: 1.40978 (Simulation time: 1 hr 2 min 13 sec) 
Heartbeat CPU 0 instructions: 700000004 cycles: 496142471 heartbeat IPC: 1.39606 cumulative IPC: 1.40958 (Simulation time: 1 hr 3 min 2 sec) 
Heartbeat CPU 0 instructions: 710000001 cycles: 503356079 heartbeat IPC: 1.38627 cumulative IPC: 1.40925 (Simulation time: 1 hr 3 min 54 sec) 
Heartbeat CPU 0 instructions: 720000002 cycles: 510643247 heartbeat IPC: 1.37228 cumulative IPC: 1.40872 (Simulation time: 1 hr 4 min 41 sec) 
Heartbeat CPU 0 instructions: 730000001 cycles: 517874200 heartbeat IPC: 1.38294 cumulative IPC: 1.40836 (Simulation time: 1 hr 5 min 31 sec) 
Heartbeat CPU 0 instructions: 740000000 cycles: 525021158 heartbeat IPC: 1.3992 cumulative IPC: 1.40823 (Simulation time: 1 hr 6 min 27 sec) 
Heartbeat CPU 0 instructions: 750000003 cycles: 532195342 heartbeat IPC: 1.39389 cumulative IPC: 1.40804 (Simulation time: 1 hr 7 min 21 sec) 
Heartbeat CPU 0 instructions: 760000001 cycles: 539324324 heartbeat IPC: 1.40272 cumulative IPC: 1.40797 (Simulation time: 1 hr 8 min 15 sec) 
Heartbeat CPU 0 instructions: 770000001 cycles: 546445205 heartbeat IPC: 1.40432 cumulative IPC: 1.40792 (Simulation time: 1 hr 9 min 8 sec) 
Heartbeat CPU 0 instructions: 780000002 cycles: 553567111 heartbeat IPC: 1.40412 cumulative IPC: 1.40787 (Simulation time: 1 hr 9 min 59 sec) 
Heartbeat CPU 0 instructions: 790000001 cycles: 560649962 heartbeat IPC: 1.41186 cumulative IPC: 1.40792 (Simulation time: 1 hr 10 min 55 sec) 
Heartbeat CPU 0 instructions: 800000000 cycles: 567759385 heartbeat IPC: 1.40658 cumulative IPC: 1.40791 (Simulation time: 1 hr 11 min 44 sec) 
Heartbeat CPU 0 instructions: 810000004 cycles: 574848537 heartbeat IPC: 1.41061 cumulative IPC: 1.40794 (Simulation time: 1 hr 12 min 33 sec) 
Heartbeat CPU 0 instructions: 820000000 cycles: 581896823 heartbeat IPC: 1.41878 cumulative IPC: 1.40807 (Simulation time: 1 hr 13 min 21 sec) 
Heartbeat CPU 0 instructions: 830000001 cycles: 588951177 heartbeat IPC: 1.41756 cumulative IPC: 1.40818 (Simulation time: 1 hr 14 min 5 sec) 
Heartbeat CPU 0 instructions: 840000000 cycles: 596007346 heartbeat IPC: 1.4172 cumulative IPC: 1.40829 (Simulation time: 1 hr 14 min 55 sec) 
Heartbeat CPU 0 instructions: 850000003 cycles: 603068674 heartbeat IPC: 1.41616 cumulative IPC: 1.40838 (Simulation time: 1 hr 15 min 40 sec) 
Heartbeat CPU 0 instructions: 860000004 cycles: 610145883 heartbeat IPC: 1.41299 cumulative IPC: 1.40844 (Simulation time: 1 hr 16 min 31 sec) 
Heartbeat CPU 0 instructions: 870000002 cycles: 617199859 heartbeat IPC: 1.41764 cumulative IPC: 1.40854 (Simulation time: 1 hr 17 min 16 sec) 
Heartbeat CPU 0 instructions: 880000000 cycles: 624275169 heartbeat IPC: 1.41337 cumulative IPC: 1.4086 (Simulation time: 1 hr 17 min 59 sec) 
Heartbeat CPU 0 instructions: 890000000 cycles: 631328016 heartbeat IPC: 1.41787 cumulative IPC: 1.4087 (Simulation time: 1 hr 18 min 43 sec) 
Heartbeat CPU 0 instructions: 900000000 cycles: 638389741 heartbeat IPC: 1.41608 cumulative IPC: 1.40878 (Simulation time: 1 hr 19 min 26 sec) 
Heartbeat CPU 0 instructions: 910000001 cycles: 645474342 heartbeat IPC: 1.41151 cumulative IPC: 1.40881 (Simulation time: 1 hr 20 min 9 sec) 
Heartbeat CPU 0 instructions: 920000004 cycles: 652611316 heartbeat IPC: 1.40115 cumulative IPC: 1.40873 (Simulation time: 1 hr 20 min 52 sec) 
Heartbeat CPU 0 instructions: 930000000 cycles: 659794219 heartbeat IPC: 1.39219 cumulative IPC: 1.40855 (Simulation time: 1 hr 21 min 39 sec) 
Heartbeat CPU 0 instructions: 940000000 cycles: 666991715 heartbeat IPC: 1.38937 cumulative IPC: 1.40834 (Simulation time: 1 hr 22 min 23 sec) 
Heartbeat CPU 0 instructions: 950000000 cycles: 674158656 heartbeat IPC: 1.3953 cumulative IPC: 1.4082 (Simulation time: 1 hr 23 min 6 sec) 
Heartbeat CPU 0 instructions: 960000002 cycles: 681425919 heartbeat IPC: 1.37603 cumulative IPC: 1.40786 (Simulation time: 1 hr 23 min 48 sec) 
Heartbeat CPU 0 instructions: 970000000 cycles: 688691331 heartbeat IPC: 1.37638 cumulative IPC: 1.40753 (Simulation time: 1 hr 24 min 31 sec) 
Heartbeat CPU 0 instructions: 980000000 cycles: 695931946 heartbeat IPC: 1.3811 cumulative IPC: 1.40725 (Simulation time: 1 hr 25 min 12 sec) 
Heartbeat CPU 0 instructions: 990000003 cycles: 703140863 heartbeat IPC: 1.38717 cumulative IPC: 1.40705 (Simulation time: 1 hr 25 min 54 sec) 
Heartbeat CPU 0 instructions: 1000000001 cycles: 710323481 heartbeat IPC: 1.39225 cumulative IPC: 1.4069 (Simulation time: 1 hr 26 min 36 sec) 
Finished CPU 0 instructions: 1000000000 cycles: 710794278 cumulative IPC: 1.40688 (Simulation time: 1 hr 26 min 40 sec) 

ChampSim completed all CPUs

Region of Interest Statistics

CPU 0 cumulative IPC: 1.40688 instructions: 1000000000 cycles: 710794278
cpu0_DTLB TOTAL     ACCESS:  214471016  HIT:  213189317  MISS:    1281699
cpu0_DTLB LOAD      ACCESS:  162773253  HIT:  161495191  MISS:    1278062
cpu0_DTLB RFO       ACCESS:   51697763  HIT:   51694126  MISS:       3637
cpu0_DTLB PREFETCH  ACCESS:          0  HIT:          0  MISS:          0
cpu0_DTLB WRITEBACK ACCESS:          0  HIT:          0  MISS:          0
cpu0_DTLB TRANSLATION ACCESS:          0  HIT:          0  MISS:          0
cpu0_DTLB PREFETCH  REQUESTED:          0  ISSUED:          0  USEFUL:          0  USELESS:          0
cpu0_DTLB AVERAGE MISS LATENCY: 10.2805 cycles
cpu0_ITLB TOTAL     ACCESS:   88485885  HIT:   88485878  MISS:          7
cpu0_ITLB LOAD      ACCESS:   88485885  HIT:   88485878  MISS:          7
cpu0_ITLB RFO       ACCESS:          0  HIT:          0  MISS:          0
cpu0_ITLB PREFETCH  ACCESS:          0  HIT:          0  MISS:          0
cpu0_ITLB WRITEBACK ACCESS:          0  HIT:          0  MISS:          0
cpu0_ITLB TRANSLATION ACCESS:          0  HIT:          0  MISS:          0
cpu0_ITLB PREFETCH  REQUESTED:          0  ISSUED:          0  USEFUL:          0  USELESS:          0
cpu0_ITLB AVERAGE MISS LATENCY: 221.714 cycles
cpu0_L1I TOTAL     ACCESS:   27479900  HIT:   27479798  MISS:        102
cpu0_L1I LOAD      ACCESS:   27479900  HIT:   27479798  MISS:        102
cpu0_L1I RFO       ACCESS:          0  HIT:          0  MISS:          0
cpu0_L1I PREFETCH  ACCESS:          0  HIT:          0  MISS:          0
cpu0_L1I WRITEBACK ACCESS:          0  HIT:          0  MISS:          0
cpu0_L1I TRANSLATION ACCESS:          0  HIT:          0  MISS:          0
cpu0_L1I PREFETCH  REQUESTED:          0  ISSUED:          0  USEFUL:          0  USELESS:          0
cpu0_L1I AVERAGE MISS LATENCY: 317.451 cycles
cpu0_STLB TOTAL     ACCESS:    1281706  HIT:    1274147  MISS:       7559
cpu0_STLB LOAD      ACCESS:    1278069  HIT:    1270514  MISS:       7555
cpu0_STLB RFO       ACCESS:       3637  HIT:       3633  MISS:          4
cpu0_STLB PREFETCH  ACCESS:          0  HIT:          0  MISS:          0
cpu0_STLB WRITEBACK ACCESS:          0  HIT:          0  MISS:          0
cpu0_STLB TRANSLATION ACCESS:          0  HIT:          0  MISS:          0
cpu0_STLB PREFETCH  REQUESTED:          0  ISSUED:          0  USEFUL:          0  USELESS:          0
cpu0_STLB AVERAGE MISS LATENCY: 217.103 cycles
cpu0_L1D TOTAL     ACCESS:  512306854  HIT:  506646314  MISS:    5660540
cpu0_L1D LOAD      ACCESS:  204990198  HIT:  203999225  MISS:     990973
cpu0_L1D RFO       ACCESS:  110603635  HIT:  110596176  MISS:       7459
cpu0_L1D PREFETCH  ACCESS:  196705471  HIT:  192048967  MISS:    4656504
cpu0_L1D WRITEBACK ACCESS:          0  HIT:          0  MISS:          0
cpu0_L1D TRANSLATION ACCESS:       7550  HIT:       1946  MISS:       5604
cpu0_L1D PREFETCH  REQUESTED:  205003781  ISSUED:  196798209  USEFUL:    4462690  USELESS:     194679
cpu0_L1D AVERAGE MISS LATENCY: 20.8134 cycles
cpu0_L2C TOTAL     ACCESS:    7197202  HIT:    6928776  MISS:     268426
cpu0_L2C LOAD      ACCESS:     990218  HIT:     954655  MISS:      35563
cpu0_L2C RFO       ACCESS:       7455  HIT:       6412  MISS:       1043
cpu0_L2C PREFETCH  ACCESS:    4683794  HIT:    4452294  MISS:     231500
cpu0_L2C WRITEBACK ACCESS:    1510131  HIT:    1510017  MISS:        114
cpu0_L2C TRANSLATION ACCESS:       5604  HIT:       5398  MISS:        206
cpu0_L2C PREFETCH  REQUESTED:      26478  ISSUED:      26473  USEFUL:       3392  USELESS:       3374
cpu0_L2C AVERAGE MISS LATENCY: 168.674 cycles
LLC TOTAL     ACCESS:     287650  HIT:      85453  MISS:     202197
LLC LOAD      ACCESS:      35563  HIT:      24348  MISS:      11215
LLC RFO       ACCESS:       1043  HIT:       1007  MISS:         36
LLC PREFETCH  ACCESS:     231518  HIT:      40960  MISS:     190558
LLC WRITEBACK ACCESS:      19320  HIT:      18967  MISS:        353
LLC TRANSLATION ACCESS:        206  HIT:        171  MISS:         35
LLC PREFETCH  REQUESTED:          0  ISSUED:          0  USEFUL:          0  USELESS:          0
LLC AVERAGE MISS LATENCY: 188.115 cycles

DRAM Statistics
 CHANNEL 0
 RQ ROW_BUFFER_HIT:     123486  ROW_BUFFER_MISS:      78358
 DBUS AVG_CONGESTED_CYCLE:    3.53033
 WQ ROW_BUFFER_HIT:         28  ROW_BUFFER_MISS:       2596  FULL:          0


CPU 0 Branch Prediction Accuracy: 97.1026% MPKI: 2.80502 Average ROB Occupancy at Mispredict: 126.87
Branch type MPKI
BRANCH_DIRECT_JUMP: 2.9e-05
BRANCH_INDIRECT: 3e-06
BRANCH_CONDITIONAL: 2.80491
BRANCH_DIRECT_CALL: 4.1e-05
BRANCH_INDIRECT_CALL: 0
BRANCH_RETURN: 3.9e-05

