
*** ChampSim Multicore Out-of-Order Simulator ***

Warmup Instructions: 1000000
Simulation Instructions: 1000000000
Number of CPUs: 1
Off-chip DRAM Size: 4 GiB Channels: 1 Width: 64-bit Data Rate: 3200 MT/s

VirtualMemory physical capacity: 8588881920 num_ppages: 2096895
VirtualMemory page size: 4096 log2_page_size: 12

CPU 0 runs tracer/pin/traces/spec2k6/400.perlbench-41B.champsimtrace.xz
Basic BTB sets: 1024 ways: 8 indirect buffer size: 4096 RAS size: 64
cpu0_L1D next line prefetcher
cpu0_L2C IP-based stride prefetcher
WARNING: The extended signature CACHE::prefetch_line(ip, base_addr, pf_addr, fill_this_level, prefetch_metadata) is deprecated.
WARNING: Use CACHE::prefetch_line(pf_addr, fill_this_level, prefetch_metadata) instead.

Warmup complete CPU 0 instructions: 1000005 cycles: 250388 (Simulation time: 0 hr 0 min 2 sec) 

Heartbeat CPU 0 instructions: 10000000 cycles: 16663402 heartbeat IPC: 0.600118 cumulative IPC: 0.548345 (Simulation time: 0 hr 0 min 55 sec) 
Heartbeat CPU 0 instructions: 20000000 cycles: 34150583 heartbeat IPC: 0.571847 cumulative IPC: 0.560469 (Simulation time: 0 hr 1 min 52 sec) 
Heartbeat CPU 0 instructions: 30000001 cycles: 42460847 heartbeat IPC: 1.20333 cumulative IPC: 0.687033 (Simulation time: 0 hr 2 min 30 sec) 
Heartbeat CPU 0 instructions: 40000001 cycles: 50797254 heartbeat IPC: 1.19956 cumulative IPC: 0.771561 (Simulation time: 0 hr 3 min 7 sec) 
Heartbeat CPU 0 instructions: 50000004 cycles: 59196023 heartbeat IPC: 1.19065 cumulative IPC: 0.831274 (Simulation time: 0 hr 3 min 44 sec) 
Heartbeat CPU 0 instructions: 60000004 cycles: 66744813 heartbeat IPC: 1.32472 cumulative IPC: 0.887292 (Simulation time: 0 hr 4 min 20 sec) 
Heartbeat CPU 0 instructions: 70000003 cycles: 74940414 heartbeat IPC: 1.22017 cumulative IPC: 0.923818 (Simulation time: 0 hr 4 min 58 sec) 
Heartbeat CPU 0 instructions: 80000000 cycles: 82942216 heartbeat IPC: 1.24972 cumulative IPC: 0.955354 (Simulation time: 0 hr 5 min 34 sec) 
Heartbeat CPU 0 instructions: 90000000 cycles: 91063337 heartbeat IPC: 1.23136 cumulative IPC: 0.980036 (Simulation time: 0 hr 6 min 11 sec) 
Heartbeat CPU 0 instructions: 100000001 cycles: 99582979 heartbeat IPC: 1.17376 cumulative IPC: 0.996652 (Simulation time: 0 hr 6 min 48 sec) 
Heartbeat CPU 0 instructions: 110000001 cycles: 107633794 heartbeat IPC: 1.24211 cumulative IPC: 1.01505 (Simulation time: 0 hr 7 min 24 sec) 
Heartbeat CPU 0 instructions: 120000002 cycles: 116441826 heartbeat IPC: 1.13533 cumulative IPC: 1.02417 (Simulation time: 0 hr 8 min 1 sec) 
Heartbeat CPU 0 instructions: 130000002 cycles: 124989321 heartbeat IPC: 1.16993 cumulative IPC: 1.03416 (Simulation time: 0 hr 8 min 39 sec) 
Heartbeat CPU 0 instructions: 140000002 cycles: 133376502 heartbeat IPC: 1.1923 cumulative IPC: 1.04412 (Simulation time: 0 hr 9 min 17 sec) 
Heartbeat CPU 0 instructions: 150000004 cycles: 141600242 heartbeat IPC: 1.21599 cumulative IPC: 1.05412 (Simulation time: 0 hr 9 min 53 sec) 
Heartbeat CPU 0 instructions: 160000000 cycles: 149463861 heartbeat IPC: 1.27168 cumulative IPC: 1.06559 (Simulation time: 0 hr 10 min 31 sec) 
Heartbeat CPU 0 instructions: 170000001 cycles: 163611526 heartbeat IPC: 0.706831 cumulative IPC: 1.03452 (Simulation time: 0 hr 11 min 23 sec) 
Heartbeat CPU 0 instructions: 180000000 cycles: 178080270 heartbeat IPC: 0.691145 cumulative IPC: 1.00658 (Simulation time: 0 hr 12 min 20 sec) 
Heartbeat CPU 0 instructions: 190000002 cycles: 194017927 heartbeat IPC: 0.627445 cumulative IPC: 0.975396 (Simulation time: 0 hr 13 min 18 sec) 
Heartbeat CPU 0 instructions: 200000004 cycles: 202438084 heartbeat IPC: 1.18763 cumulative IPC: 0.984234 (Simulation time: 0 hr 13 min 57 sec) 
Heartbeat CPU 0 instructions: 210000002 cycles: 210614129 heartbeat IPC: 1.22309 cumulative IPC: 0.993517 (Simulation time: 0 hr 14 min 35 sec) 
Heartbeat CPU 0 instructions: 220000001 cycles: 219076859 heartbeat IPC: 1.18165 cumulative IPC: 1.00079 (Simulation time: 0 hr 15 min 20 sec) 
Heartbeat CPU 0 instructions: 230000003 cycles: 226571661 heartbeat IPC: 1.33426 cumulative IPC: 1.01184 (Simulation time: 0 hr 16 min 0 sec) 
Heartbeat CPU 0 instructions: 240000001 cycles: 234676577 heartbeat IPC: 1.23382 cumulative IPC: 1.01951 (Simulation time: 0 hr 16 min 46 sec) 
Heartbeat CPU 0 instructions: 250000003 cycles: 242933250 heartbeat IPC: 1.21114 cumulative IPC: 1.02603 (Simulation time: 0 hr 17 min 30 sec) 
Heartbeat CPU 0 instructions: 260000000 cycles: 250978521 heartbeat IPC: 1.24297 cumulative IPC: 1.03299 (Simulation time: 0 hr 18 min 18 sec) 
Heartbeat CPU 0 instructions: 270000002 cycles: 259543750 heartbeat IPC: 1.16751 cumulative IPC: 1.03743 (Simulation time: 0 hr 19 min 4 sec) 
Heartbeat CPU 0 instructions: 280000000 cycles: 267584341 heartbeat IPC: 1.24369 cumulative IPC: 1.04364 (Simulation time: 0 hr 19 min 52 sec) 
Heartbeat CPU 0 instructions: 290000000 cycles: 276647474 heartbeat IPC: 1.10337 cumulative IPC: 1.0456 (Simulation time: 0 hr 20 min 34 sec) 
Heartbeat CPU 0 instructions: 300000003 cycles: 284860061 heartbeat IPC: 1.21764 cumulative IPC: 1.05056 (Simulation time: 0 hr 21 min 20 sec) 
Heartbeat CPU 0 instructions: 310000002 cycles: 293179815 heartbeat IPC: 1.20196 cumulative IPC: 1.05486 (Simulation time: 0 hr 22 min 7 sec) 
Heartbeat CPU 0 instructions: 320000000 cycles: 301498166 heartbeat IPC: 1.20216 cumulative IPC: 1.05893 (Simulation time: 0 hr 22 min 49 sec) 
Heartbeat CPU 0 instructions: 330000002 cycles: 309301787 heartbeat IPC: 1.28146 cumulative IPC: 1.06455 (Simulation time: 0 hr 23 min 32 sec) 
Heartbeat CPU 0 instructions: 340000001 cycles: 323888434 heartbeat IPC: 0.685558 cumulative IPC: 1.04747 (Simulation time: 0 hr 24 min 38 sec) 
Heartbeat CPU 0 instructions: 350000002 cycles: 338619402 heartbeat IPC: 0.678842 cumulative IPC: 1.03142 (Simulation time: 0 hr 25 min 54 sec) 
Heartbeat CPU 0 instructions: 360000002 cycles: 354153389 heartbeat IPC: 0.64375 cumulative IPC: 1.0144 (Simulation time: 0 hr 27 min 13 sec) 
Heartbeat CPU 0 instructions: 370000002 cycles: 362607126 heartbeat IPC: 1.18291 cumulative IPC: 1.01833 (Simulation time: 0 hr 28 min 6 sec) 
Heartbeat CPU 0 instructions: 380000004 cycles: 371252265 heartbeat IPC: 1.15672 cumulative IPC: 1.02156 (Simulation time: 0 hr 28 min 59 sec) 
Heartbeat CPU 0 instructions: 390000001 cycles: 379437842 heartbeat IPC: 1.22166 cumulative IPC: 1.02588 (Simulation time: 0 hr 29 min 52 sec) 
Heartbeat CPU 0 instructions: 400000002 cycles: 388104947 heartbeat IPC: 1.15379 cumulative IPC: 1.02874 (Simulation time: 0 hr 30 min 50 sec) 
Heartbeat CPU 0 instructions: 410000000 cycles: 396091869 heartbeat IPC: 1.25205 cumulative IPC: 1.03324 (Simulation time: 0 hr 31 min 51 sec) 
Heartbeat CPU 0 instructions: 420000000 cycles: 403918449 heartbeat IPC: 1.2777 cumulative IPC: 1.03798 (Simulation time: 0 hr 32 min 47 sec) 
Heartbeat CPU 0 instructions: 430000004 cycles: 412255993 heartbeat IPC: 1.19939 cumulative IPC: 1.04125 (Simulation time: 0 hr 33 min 46 sec) 
Heartbeat CPU 0 instructions: 440000001 cycles: 420596979 heartbeat IPC: 1.1989 cumulative IPC: 1.04438 (Simulation time: 0 hr 34 min 45 sec) 
Heartbeat CPU 0 instructions: 450000003 cycles: 428904756 heartbeat IPC: 1.20369 cumulative IPC: 1.04746 (Simulation time: 0 hr 35 min 47 sec) 
Heartbeat CPU 0 instructions: 460000001 cycles: 436963613 heartbeat IPC: 1.24087 cumulative IPC: 1.05103 (Simulation time: 0 hr 36 min 46 sec) 
Heartbeat CPU 0 instructions: 470000002 cycles: 445740285 heartbeat IPC: 1.13938 cumulative IPC: 1.05277 (Simulation time: 0 hr 37 min 50 sec) 
Heartbeat CPU 0 instructions: 480000004 cycles: 453922089 heartbeat IPC: 1.22222 cumulative IPC: 1.05583 (Simulation time: 0 hr 38 min 50 sec) 
Heartbeat CPU 0 instructions: 490000000 cycles: 462263084 heartbeat IPC: 1.1989 cumulative IPC: 1.05841 (Simulation time: 0 hr 39 min 56 sec) 
Heartbeat CPU 0 instructions: 500000002 cycles: 471017488 heartbeat IPC: 1.14228 cumulative IPC: 1.05997 (Simulation time: 0 hr 40 min 54 sec) 
Heartbeat CPU 0 instructions: 510000004 cycles: 480425301 heartbeat IPC: 1.06295 cumulative IPC: 1.06003 (Simulation time: 0 hr 41 min 54 sec) 
Heartbeat CPU 0 instructions: 520000004 cycles: 488503990 heartbeat IPC: 1.23782 cumulative IPC: 1.06297 (Simulation time: 0 hr 42 min 56 sec) 
Heartbeat CPU 0 instructions: 530000003 cycles: 497319975 heartbeat IPC: 1.1343 cumulative IPC: 1.06424 (Simulation time: 0 hr 43 min 58 sec) 
Heartbeat CPU 0 instructions: 540000004 cycles: 505772225 heartbeat IPC: 1.18312 cumulative IPC: 1.06622 (Simulation time: 0 hr 44 min 53 sec) 
Heartbeat CPU 0 instructions: 550000002 cycles: 513750339 heartbeat IPC: 1.25343 cumulative IPC: 1.06913 (Simulation time: 0 hr 45 min 42 sec) 
Heartbeat CPU 0 instructions: 560000001 cycles: 521855557 heartbeat IPC: 1.23377 cumulative IPC: 1.07169 (Simulation time: 0 hr 46 min 30 sec) 
Heartbeat CPU 0 instructions: 570000002 cycles: 532709253 heartbeat IPC: 0.921345 cumulative IPC: 1.06863 (Simulation time: 0 hr 47 min 31 sec) 
Heartbeat CPU 0 instructions: 580000000 cycles: 549270937 heartbeat IPC: 0.603803 cumulative IPC: 1.05461 (Simulation time: 0 hr 48 min 48 sec) 
Heartbeat CPU 0 instructions: 590000000 cycles: 566543798 heartbeat IPC: 0.578943 cumulative IPC: 1.0401 (Simulation time: 0 hr 50 min 11 sec) 
Heartbeat CPU 0 instructions: 600000001 cycles: 574390751 heartbeat IPC: 1.27438 cumulative IPC: 1.0433 (Simulation time: 0 hr 51 min 8 sec) 
Heartbeat CPU 0 instructions: 610000000 cycles: 582558006 heartbeat IPC: 1.2244 cumulative IPC: 1.04584 (Simulation time: 0 hr 52 min 9 sec) 
Heartbeat CPU 0 instructions: 620000001 cycles: 591031810 heartbeat IPC: 1.18011 cumulative IPC: 1.04776 (Simulation time: 0 hr 53 min 8 sec) 
Heartbeat CPU 0 instructions: 630000004 cycles: 598968305 heartbeat IPC: 1.26 cumulative IPC: 1.05058 (Simulation time: 0 hr 54 min 1 sec) 
Heartbeat CPU 0 instructions: 640000000 cycles: 607232521 heartbeat IPC: 1.21004 cumulative IPC: 1.05275 (Simulation time: 0 hr 55 min 2 sec) 
Heartbeat CPU 0 instructions: 650000001 cycles: 615415600 heartbeat IPC: 1.22203 cumulative IPC: 1.055 (Simulation time: 0 hr 55 min 59 sec) 
Heartbeat CPU 0 instructions: 660000000 cycles: 622817266 heartbeat IPC: 1.35105 cumulative IPC: 1.05852 (Simulation time: 0 hr 56 min 52 sec) 
Heartbeat CPU 0 instructions: 670000000 cycles: 629960644 heartbeat IPC: 1.3999 cumulative IPC: 1.06239 (Simulation time: 0 hr 57 min 46 sec) 
Heartbeat CPU 0 instructions: 680000000 cycles: 637816741 heartbeat IPC: 1.2729 cumulative IPC: 1.06499 (Simulation time: 0 hr 58 min 45 sec) 
Heartbeat CPU 0 instructions: 690000000 cycles: 645727905 heartbeat IPC: 1.26404 cumulative IPC: 1.06743 (Simulation time: 0 hr 59 min 47 sec) 
Heartbeat CPU 0 instructions: 700000002 cycles: 653877645 heartbeat IPC: 1.22703 cumulative IPC: 1.06942 (Simulation time: 1 hr 0 min 43 sec) 
Heartbeat CPU 0 instructions: 710000001 cycles: 661921593 heartbeat IPC: 1.24317 cumulative IPC: 1.07153 (Simulation time: 1 hr 1 min 45 sec) 
Heartbeat CPU 0 instructions: 720000003 cycles: 669725425 heartbeat IPC: 1.28142 cumulative IPC: 1.07398 (Simulation time: 1 hr 2 min 45 sec) 
Heartbeat CPU 0 instructions: 730000002 cycles: 677642907 heartbeat IPC: 1.26303 cumulative IPC: 1.07619 (Simulation time: 1 hr 3 min 43 sec) 
Heartbeat CPU 0 instructions: 740000003 cycles: 686272904 heartbeat IPC: 1.15875 cumulative IPC: 1.07722 (Simulation time: 1 hr 4 min 40 sec) 
Heartbeat CPU 0 instructions: 750000000 cycles: 693872695 heartbeat IPC: 1.31583 cumulative IPC: 1.07984 (Simulation time: 1 hr 5 min 35 sec) 
Heartbeat CPU 0 instructions: 760000000 cycles: 701936724 heartbeat IPC: 1.24007 cumulative IPC: 1.08168 (Simulation time: 1 hr 6 min 30 sec) 
Heartbeat CPU 0 instructions: 770000001 cycles: 710477859 heartbeat IPC: 1.1708 cumulative IPC: 1.08275 (Simulation time: 1 hr 7 min 29 sec) 
Heartbeat CPU 0 instructions: 780000002 cycles: 719127364 heartbeat IPC: 1.15614 cumulative IPC: 1.08363 (Simulation time: 1 hr 8 min 27 sec) 
Heartbeat CPU 0 instructions: 790000001 cycles: 728013808 heartbeat IPC: 1.12531 cumulative IPC: 1.08414 (Simulation time: 1 hr 9 min 29 sec) 
Heartbeat CPU 0 instructions: 800000002 cycles: 736019761 heartbeat IPC: 1.24907 cumulative IPC: 1.08594 (Simulation time: 1 hr 10 min 26 sec) 
Heartbeat CPU 0 instructions: 810000000 cycles: 744034518 heartbeat IPC: 1.2477 cumulative IPC: 1.08768 (Simulation time: 1 hr 11 min 21 sec) 
Heartbeat CPU 0 instructions: 820000001 cycles: 752051770 heartbeat IPC: 1.24731 cumulative IPC: 1.08938 (Simulation time: 1 hr 12 min 21 sec) 
Heartbeat CPU 0 instructions: 830000002 cycles: 760568896 heartbeat IPC: 1.17411 cumulative IPC: 1.09033 (Simulation time: 1 hr 13 min 22 sec) 
Heartbeat CPU 0 instructions: 840000004 cycles: 768265406 heartbeat IPC: 1.29929 cumulative IPC: 1.09243 (Simulation time: 1 hr 14 min 22 sec) 
Heartbeat CPU 0 instructions: 850000003 cycles: 775589619 heartbeat IPC: 1.36533 cumulative IPC: 1.095 (Simulation time: 1 hr 15 min 16 sec) 
Heartbeat CPU 0 instructions: 860000002 cycles: 784764903 heartbeat IPC: 1.08988 cumulative IPC: 1.09494 (Simulation time: 1 hr 16 min 7 sec) 
Heartbeat CPU 0 instructions: 870000000 cycles: 797793691 heartbeat IPC: 0.767531 cumulative IPC: 1.0896 (Simulation time: 1 hr 17 min 10 sec) 
Heartbeat CPU 0 instructions: 880000000 cycles: 812182139 heartbeat IPC: 0.695002 cumulative IPC: 1.0826 (Simulation time: 1 hr 18 min 26 sec) 
Heartbeat CPU 0 instructions: 890000004 cycles: 831676309 heartbeat IPC: 0.512974 cumulative IPC: 1.06925 (Simulation time: 1 hr 19 min 52 sec) 
Heartbeat CPU 0 instructions: 900000004 cycles: 843219799 heartbeat IPC: 0.866289 cumulative IPC: 1.06647 (Simulation time: 1 hr 20 min 56 sec) 
Heartbeat CPU 0 instructions: 910000002 cycles: 854287129 heartbeat IPC: 0.90356 cumulative IPC: 1.06436 (Simulation time: 1 hr 21 min 58 sec) 
Heartbeat CPU 0 instructions: 920000002 cycles: 871506537 heartbeat IPC: 0.58074 cumulative IPC: 1.0548 (Simulation time: 1 hr 23 min 13 sec) 
Heartbeat CPU 0 instructions: 930000001 cycles: 887054624 heartbeat IPC: 0.643166 cumulative IPC: 1.04758 (Simulation time: 1 hr 24 min 29 sec) 
Heartbeat CPU 0 instructions: 940000000 cycles: 903359309 heartbeat IPC: 0.613321 cumulative IPC: 1.03974 (Simulation time: 1 hr 25 min 45 sec) 
Heartbeat CPU 0 instructions: 950000003 cycles: 916472848 heartbeat IPC: 0.762571 cumulative IPC: 1.03577 (Simulation time: 1 hr 26 min 51 sec) 
Heartbeat CPU 0 instructions: 960000000 cycles: 927082681 heartbeat IPC: 0.942522 cumulative IPC: 1.03471 (Simulation time: 1 hr 27 min 50 sec) 
Heartbeat CPU 0 instructions: 970000001 cycles: 940919601 heartbeat IPC: 0.722704 cumulative IPC: 1.03012 (Simulation time: 1 hr 28 min 56 sec) 
Heartbeat CPU 0 instructions: 980000000 cycles: 956739851 heartbeat IPC: 0.632101 cumulative IPC: 1.02353 (Simulation time: 1 hr 30 min 10 sec) 
Heartbeat CPU 0 instructions: 990000003 cycles: 973249880 heartbeat IPC: 0.605693 cumulative IPC: 1.01644 (Simulation time: 1 hr 31 min 24 sec) 
Heartbeat CPU 0 instructions: 1000000000 cycles: 986485554 heartbeat IPC: 0.755534 cumulative IPC: 1.01294 (Simulation time: 1 hr 32 min 30 sec) 
Finished CPU 0 instructions: 1000000003 cycles: 987027571 cumulative IPC: 1.01314 (Simulation time: 1 hr 32 min 35 sec) 

ChampSim completed all CPUs

Region of Interest Statistics

CPU 0 cumulative IPC: 1.01314 instructions: 1000000003 cycles: 987027571
cpu0_DTLB TOTAL     ACCESS:  218075679  HIT:  216838970  MISS:    1236709
cpu0_DTLB LOAD      ACCESS:  144752617  HIT:  143690656  MISS:    1061961
cpu0_DTLB RFO       ACCESS:   73323062  HIT:   73148314  MISS:     174748
cpu0_DTLB PREFETCH  ACCESS:          0  HIT:          0  MISS:          0
cpu0_DTLB WRITEBACK ACCESS:          0  HIT:          0  MISS:          0
cpu0_DTLB TRANSLATION ACCESS:          0  HIT:          0  MISS:          0
cpu0_DTLB PREFETCH  REQUESTED:          0  ISSUED:          0  USEFUL:          0  USELESS:          0
cpu0_DTLB AVERAGE MISS LATENCY: 10.2714 cycles
cpu0_ITLB TOTAL     ACCESS:   81694713  HIT:   81642746  MISS:      51967
cpu0_ITLB LOAD      ACCESS:   81694713  HIT:   81642746  MISS:      51967
cpu0_ITLB RFO       ACCESS:          0  HIT:          0  MISS:          0
cpu0_ITLB PREFETCH  ACCESS:          0  HIT:          0  MISS:          0
cpu0_ITLB WRITEBACK ACCESS:          0  HIT:          0  MISS:          0
cpu0_ITLB TRANSLATION ACCESS:          0  HIT:          0  MISS:          0
cpu0_ITLB PREFETCH  REQUESTED:          0  ISSUED:          0  USEFUL:          0  USELESS:          0
cpu0_ITLB AVERAGE MISS LATENCY: 10.2508 cycles
cpu0_L1I TOTAL     ACCESS:   52537378  HIT:   51166860  MISS:    1370518
cpu0_L1I LOAD      ACCESS:   52537378  HIT:   51166860  MISS:    1370518
cpu0_L1I RFO       ACCESS:          0  HIT:          0  MISS:          0
cpu0_L1I PREFETCH  ACCESS:          0  HIT:          0  MISS:          0
cpu0_L1I WRITEBACK ACCESS:          0  HIT:          0  MISS:          0
cpu0_L1I TRANSLATION ACCESS:          0  HIT:          0  MISS:          0
cpu0_L1I PREFETCH  REQUESTED:          0  ISSUED:          0  USEFUL:          0  USELESS:          0
cpu0_L1I AVERAGE MISS LATENCY: 22.6771 cycles
cpu0_STLB TOTAL     ACCESS:    1288676  HIT:    1233465  MISS:      55211
cpu0_STLB LOAD      ACCESS:    1113928  HIT:    1064480  MISS:      49448
cpu0_STLB RFO       ACCESS:     174748  HIT:     168985  MISS:       5763
cpu0_STLB PREFETCH  ACCESS:          0  HIT:          0  MISS:          0
cpu0_STLB WRITEBACK ACCESS:          0  HIT:          0  MISS:          0
cpu0_STLB TRANSLATION ACCESS:          0  HIT:          0  MISS:          0
cpu0_STLB PREFETCH  REQUESTED:          0  ISSUED:          0  USEFUL:          0  USELESS:          0
cpu0_STLB AVERAGE MISS LATENCY: 29.5329 cycles
cpu0_L1D TOTAL     ACCESS:  426394501  HIT:  422502165  MISS:    3892336
cpu0_L1D LOAD      ACCESS:  145814262  HIT:  144048465  MISS:    1765797
cpu0_L1D RFO       ACCESS:  135398103  HIT:  135182087  MISS:     216016
cpu0_L1D PREFETCH  ACCESS:  145127194  HIT:  143230273  MISS:    1896921
cpu0_L1D WRITEBACK ACCESS:          0  HIT:          0  MISS:          0
cpu0_L1D TRANSLATION ACCESS:      54942  HIT:      41340  MISS:      13602
cpu0_L1D PREFETCH  REQUESTED:  145931119  ISSUED:  145815267  USEFUL:    1553576  USELESS:     408392
cpu0_L1D AVERAGE MISS LATENCY: 78.0391 cycles
cpu0_L2C TOTAL     ACCESS:    6282821  HIT:    4581191  MISS:    1701630
cpu0_L2C LOAD      ACCESS:    3072385  HIT:    2208469  MISS:     863916
cpu0_L2C RFO       ACCESS:     214392  HIT:     142342  MISS:      72050
cpu0_L2C PREFETCH  ACCESS:    2249904  HIT:    1492996  MISS:     756908
cpu0_L2C WRITEBACK ACCESS:     732538  HIT:     724934  MISS:       7604
cpu0_L2C TRANSLATION ACCESS:      13602  HIT:      12450  MISS:       1152
cpu0_L2C PREFETCH  REQUESTED:     310409  ISSUED:     293496  USEFUL:      27493  USELESS:      33562
cpu0_L2C AVERAGE MISS LATENCY: 174.838 cycles
LLC TOTAL     ACCESS:    1934455  HIT:    1101134  MISS:     833321
LLC LOAD      ACCESS:     863900  HIT:     504544  MISS:     359356
LLC RFO       ACCESS:      72034  HIT:      39430  MISS:      32604
LLC PREFETCH  ACCESS:     757130  HIT:     317204  MISS:     439926
LLC WRITEBACK ACCESS:     240239  HIT:     238835  MISS:       1404
LLC TRANSLATION ACCESS:       1152  HIT:       1121  MISS:         31
LLC PREFETCH  REQUESTED:          0  ISSUED:          0  USEFUL:          0  USELESS:          0
LLC AVERAGE MISS LATENCY: 302.255 cycles

DRAM Statistics
 CHANNEL 0
 RQ ROW_BUFFER_HIT:      85966  ROW_BUFFER_MISS:     745930
 DBUS AVG_CONGESTED_CYCLE:    3.57745
 WQ ROW_BUFFER_HIT:      42047  ROW_BUFFER_MISS:      56369  FULL:          0


CPU 0 Branch Prediction Accuracy: 95.7711% MPKI: 8.75622 Average ROB Occupancy at Mispredict: 50.395
Branch type MPKI
BRANCH_DIRECT_JUMP: 0.001557
BRANCH_INDIRECT: 0.340429
BRANCH_CONDITIONAL: 8.10971
BRANCH_DIRECT_CALL: 0.001915
BRANCH_INDIRECT_CALL: 0.297407
BRANCH_RETURN: 0.005195

