
*** ChampSim Multicore Out-of-Order Simulator ***

Warmup Instructions: 1000000
Simulation Instructions: 1000000000
Number of CPUs: 1
Off-chip DRAM Size: 4 GiB Channels: 1 Width: 64-bit Data Rate: 3200 MT/s

VirtualMemory physical capacity: 8588881920 num_ppages: 2096895
VirtualMemory page size: 4096 log2_page_size: 12

CPU 0 runs tracer/pin/traces/spec2k6/465.tonto-1914B.champsimtrace.xz
Basic BTB sets: 1024 ways: 8 indirect buffer size: 4096 RAS size: 64
cpu0_L1D next line prefetcher
cpu0_L2C IP-based stride prefetcher
WARNING: The extended signature CACHE::prefetch_line(ip, base_addr, pf_addr, fill_this_level, prefetch_metadata) is deprecated.
WARNING: Use CACHE::prefetch_line(pf_addr, fill_this_level, prefetch_metadata) instead.

Warmup complete CPU 0 instructions: 1000004 cycles: 285486 (Simulation time: 0 hr 0 min 3 sec) 

Heartbeat CPU 0 instructions: 10000000 cycles: 6296178 heartbeat IPC: 1.58827 cumulative IPC: 1.49733 (Simulation time: 0 hr 0 min 54 sec) 
Heartbeat CPU 0 instructions: 20000004 cycles: 12651519 heartbeat IPC: 1.57348 cumulative IPC: 1.53647 (Simulation time: 0 hr 1 min 55 sec) 
Heartbeat CPU 0 instructions: 30000003 cycles: 18448275 heartbeat IPC: 1.7251 cumulative IPC: 1.59667 (Simulation time: 0 hr 2 min 48 sec) 
Heartbeat CPU 0 instructions: 40000002 cycles: 24187318 heartbeat IPC: 1.74245 cumulative IPC: 1.63167 (Simulation time: 0 hr 3 min 39 sec) 
Heartbeat CPU 0 instructions: 50000002 cycles: 30371332 heartbeat IPC: 1.61707 cumulative IPC: 1.62867 (Simulation time: 0 hr 4 min 33 sec) 
Heartbeat CPU 0 instructions: 60000000 cycles: 36650273 heartbeat IPC: 1.59262 cumulative IPC: 1.62245 (Simulation time: 0 hr 5 min 31 sec) 
Heartbeat CPU 0 instructions: 70000002 cycles: 42791625 heartbeat IPC: 1.62831 cumulative IPC: 1.62329 (Simulation time: 0 hr 6 min 29 sec) 
Heartbeat CPU 0 instructions: 80000000 cycles: 48798330 heartbeat IPC: 1.66481 cumulative IPC: 1.62843 (Simulation time: 0 hr 7 min 24 sec) 
Heartbeat CPU 0 instructions: 90000002 cycles: 54546459 heartbeat IPC: 1.7397 cumulative IPC: 1.64022 (Simulation time: 0 hr 8 min 16 sec) 
Heartbeat CPU 0 instructions: 100000003 cycles: 60310486 heartbeat IPC: 1.7349 cumulative IPC: 1.64931 (Simulation time: 0 hr 9 min 9 sec) 
Heartbeat CPU 0 instructions: 110000000 cycles: 66259354 heartbeat IPC: 1.68099 cumulative IPC: 1.65217 (Simulation time: 0 hr 10 min 2 sec) 
Heartbeat CPU 0 instructions: 120000002 cycles: 72829482 heartbeat IPC: 1.52204 cumulative IPC: 1.64038 (Simulation time: 0 hr 11 min 5 sec) 
Heartbeat CPU 0 instructions: 130000003 cycles: 79197837 heartbeat IPC: 1.57026 cumulative IPC: 1.63473 (Simulation time: 0 hr 12 min 7 sec) 
Heartbeat CPU 0 instructions: 140000004 cycles: 85457708 heartbeat IPC: 1.59748 cumulative IPC: 1.63199 (Simulation time: 0 hr 13 min 12 sec) 
Heartbeat CPU 0 instructions: 150000001 cycles: 91586455 heartbeat IPC: 1.63165 cumulative IPC: 1.63197 (Simulation time: 0 hr 14 min 14 sec) 
Heartbeat CPU 0 instructions: 160000002 cycles: 97286383 heartbeat IPC: 1.75441 cumulative IPC: 1.63916 (Simulation time: 0 hr 15 min 10 sec) 
Heartbeat CPU 0 instructions: 170000000 cycles: 103058076 heartbeat IPC: 1.73259 cumulative IPC: 1.64441 (Simulation time: 0 hr 16 min 6 sec) 
Heartbeat CPU 0 instructions: 180000004 cycles: 108774084 heartbeat IPC: 1.74947 cumulative IPC: 1.64994 (Simulation time: 0 hr 17 min 1 sec) 
Heartbeat CPU 0 instructions: 190000002 cycles: 114477885 heartbeat IPC: 1.75322 cumulative IPC: 1.6551 (Simulation time: 0 hr 17 min 56 sec) 
Heartbeat CPU 0 instructions: 200000000 cycles: 120731826 heartbeat IPC: 1.59899 cumulative IPC: 1.65219 (Simulation time: 0 hr 18 min 57 sec) 
Heartbeat CPU 0 instructions: 210000001 cycles: 127160011 heartbeat IPC: 1.55565 cumulative IPC: 1.6473 (Simulation time: 0 hr 20 min 2 sec) 
Heartbeat CPU 0 instructions: 220000004 cycles: 133400945 heartbeat IPC: 1.60232 cumulative IPC: 1.64519 (Simulation time: 0 hr 21 min 2 sec) 
Heartbeat CPU 0 instructions: 230000003 cycles: 139352081 heartbeat IPC: 1.68035 cumulative IPC: 1.64669 (Simulation time: 0 hr 21 min 59 sec) 
Heartbeat CPU 0 instructions: 240000000 cycles: 145261737 heartbeat IPC: 1.69215 cumulative IPC: 1.64855 (Simulation time: 0 hr 22 min 58 sec) 
Heartbeat CPU 0 instructions: 250000001 cycles: 151262868 heartbeat IPC: 1.66635 cumulative IPC: 1.64925 (Simulation time: 0 hr 23 min 56 sec) 
Heartbeat CPU 0 instructions: 260000002 cycles: 157213142 heartbeat IPC: 1.6806 cumulative IPC: 1.65044 (Simulation time: 0 hr 24 min 57 sec) 
Heartbeat CPU 0 instructions: 270000004 cycles: 163083428 heartbeat IPC: 1.70349 cumulative IPC: 1.65236 (Simulation time: 0 hr 25 min 55 sec) 
Heartbeat CPU 0 instructions: 280000003 cycles: 169182214 heartbeat IPC: 1.63967 cumulative IPC: 1.6519 (Simulation time: 0 hr 26 min 52 sec) 
Heartbeat CPU 0 instructions: 290000004 cycles: 175219007 heartbeat IPC: 1.65651 cumulative IPC: 1.65206 (Simulation time: 0 hr 27 min 51 sec) 
Heartbeat CPU 0 instructions: 300000004 cycles: 181089499 heartbeat IPC: 1.70343 cumulative IPC: 1.65372 (Simulation time: 0 hr 28 min 51 sec) 
Heartbeat CPU 0 instructions: 310000002 cycles: 186996817 heartbeat IPC: 1.69282 cumulative IPC: 1.65496 (Simulation time: 0 hr 29 min 47 sec) 
Heartbeat CPU 0 instructions: 320000002 cycles: 193060828 heartbeat IPC: 1.64907 cumulative IPC: 1.65478 (Simulation time: 0 hr 30 min 46 sec) 
Heartbeat CPU 0 instructions: 330000001 cycles: 199104324 heartbeat IPC: 1.65467 cumulative IPC: 1.65477 (Simulation time: 0 hr 31 min 44 sec) 
Heartbeat CPU 0 instructions: 340000000 cycles: 204996282 heartbeat IPC: 1.69723 cumulative IPC: 1.65599 (Simulation time: 0 hr 32 min 39 sec) 
Heartbeat CPU 0 instructions: 350000004 cycles: 210939667 heartbeat IPC: 1.68254 cumulative IPC: 1.65674 (Simulation time: 0 hr 33 min 39 sec) 
Heartbeat CPU 0 instructions: 360000002 cycles: 216836757 heartbeat IPC: 1.69575 cumulative IPC: 1.65781 (Simulation time: 0 hr 34 min 34 sec) 
Heartbeat CPU 0 instructions: 370000001 cycles: 222855219 heartbeat IPC: 1.66155 cumulative IPC: 1.65791 (Simulation time: 0 hr 35 min 34 sec) 
Heartbeat CPU 0 instructions: 380000004 cycles: 228718102 heartbeat IPC: 1.70565 cumulative IPC: 1.65913 (Simulation time: 0 hr 36 min 31 sec) 
Heartbeat CPU 0 instructions: 390000001 cycles: 234697311 heartbeat IPC: 1.67246 cumulative IPC: 1.65947 (Simulation time: 0 hr 37 min 25 sec) 
Heartbeat CPU 0 instructions: 400000000 cycles: 240786844 heartbeat IPC: 1.64216 cumulative IPC: 1.65903 (Simulation time: 0 hr 38 min 22 sec) 
Heartbeat CPU 0 instructions: 410000000 cycles: 246689539 heartbeat IPC: 1.69414 cumulative IPC: 1.65988 (Simulation time: 0 hr 39 min 18 sec) 
Heartbeat CPU 0 instructions: 420000001 cycles: 252542628 heartbeat IPC: 1.7085 cumulative IPC: 1.661 (Simulation time: 0 hr 40 min 10 sec) 
Heartbeat CPU 0 instructions: 430000003 cycles: 258508007 heartbeat IPC: 1.67634 cumulative IPC: 1.66136 (Simulation time: 0 hr 41 min 1 sec) 
Heartbeat CPU 0 instructions: 440000001 cycles: 264577823 heartbeat IPC: 1.6475 cumulative IPC: 1.66104 (Simulation time: 0 hr 41 min 58 sec) 
Heartbeat CPU 0 instructions: 450000001 cycles: 270515986 heartbeat IPC: 1.68402 cumulative IPC: 1.66154 (Simulation time: 0 hr 42 min 55 sec) 
Heartbeat CPU 0 instructions: 460000003 cycles: 276146631 heartbeat IPC: 1.776 cumulative IPC: 1.66388 (Simulation time: 0 hr 43 min 48 sec) 
Heartbeat CPU 0 instructions: 470000003 cycles: 282182216 heartbeat IPC: 1.65684 cumulative IPC: 1.66373 (Simulation time: 0 hr 44 min 45 sec) 
Heartbeat CPU 0 instructions: 480000003 cycles: 287958309 heartbeat IPC: 1.73127 cumulative IPC: 1.66509 (Simulation time: 0 hr 45 min 42 sec) 
Heartbeat CPU 0 instructions: 490000003 cycles: 293597592 heartbeat IPC: 1.77328 cumulative IPC: 1.66717 (Simulation time: 0 hr 46 min 36 sec) 
Heartbeat CPU 0 instructions: 500000001 cycles: 299487062 heartbeat IPC: 1.69795 cumulative IPC: 1.66777 (Simulation time: 0 hr 47 min 29 sec) 
Heartbeat CPU 0 instructions: 510000000 cycles: 305515599 heartbeat IPC: 1.65878 cumulative IPC: 1.66759 (Simulation time: 0 hr 48 min 26 sec) 
Heartbeat CPU 0 instructions: 520000001 cycles: 311402293 heartbeat IPC: 1.69875 cumulative IPC: 1.66818 (Simulation time: 0 hr 49 min 26 sec) 
Heartbeat CPU 0 instructions: 530000000 cycles: 317103896 heartbeat IPC: 1.75389 cumulative IPC: 1.66973 (Simulation time: 0 hr 50 min 23 sec) 
Heartbeat CPU 0 instructions: 540000004 cycles: 322787975 heartbeat IPC: 1.7593 cumulative IPC: 1.6713 (Simulation time: 0 hr 51 min 16 sec) 
Heartbeat CPU 0 instructions: 550000001 cycles: 328587807 heartbeat IPC: 1.72419 cumulative IPC: 1.67224 (Simulation time: 0 hr 52 min 12 sec) 
Heartbeat CPU 0 instructions: 560000002 cycles: 334734244 heartbeat IPC: 1.62696 cumulative IPC: 1.67141 (Simulation time: 0 hr 53 min 10 sec) 
Heartbeat CPU 0 instructions: 570000002 cycles: 340770628 heartbeat IPC: 1.65662 cumulative IPC: 1.67114 (Simulation time: 0 hr 54 min 6 sec) 
Heartbeat CPU 0 instructions: 580000004 cycles: 346613955 heartbeat IPC: 1.71135 cumulative IPC: 1.67182 (Simulation time: 0 hr 55 min 4 sec) 
Heartbeat CPU 0 instructions: 590000001 cycles: 352433778 heartbeat IPC: 1.71826 cumulative IPC: 1.67259 (Simulation time: 0 hr 56 min 3 sec) 
Heartbeat CPU 0 instructions: 600000004 cycles: 358066068 heartbeat IPC: 1.77548 cumulative IPC: 1.67421 (Simulation time: 0 hr 56 min 58 sec) 
Heartbeat CPU 0 instructions: 610000001 cycles: 363898317 heartbeat IPC: 1.7146 cumulative IPC: 1.67486 (Simulation time: 0 hr 57 min 50 sec) 
Heartbeat CPU 0 instructions: 620000000 cycles: 369632739 heartbeat IPC: 1.74385 cumulative IPC: 1.67593 (Simulation time: 0 hr 58 min 41 sec) 
Heartbeat CPU 0 instructions: 630000002 cycles: 375542351 heartbeat IPC: 1.69216 cumulative IPC: 1.67619 (Simulation time: 0 hr 59 min 33 sec) 
Heartbeat CPU 0 instructions: 640000004 cycles: 381708495 heartbeat IPC: 1.62176 cumulative IPC: 1.67531 (Simulation time: 1 hr 0 min 29 sec) 
Heartbeat CPU 0 instructions: 650000002 cycles: 387561938 heartbeat IPC: 1.7084 cumulative IPC: 1.67581 (Simulation time: 1 hr 1 min 21 sec) 
Heartbeat CPU 0 instructions: 660000002 cycles: 393436110 heartbeat IPC: 1.70237 cumulative IPC: 1.6762 (Simulation time: 1 hr 2 min 15 sec) 
Heartbeat CPU 0 instructions: 670000003 cycles: 399177100 heartbeat IPC: 1.74186 cumulative IPC: 1.67715 (Simulation time: 1 hr 3 min 6 sec) 
Heartbeat CPU 0 instructions: 680000001 cycles: 405130422 heartbeat IPC: 1.67973 cumulative IPC: 1.67719 (Simulation time: 1 hr 4 min 2 sec) 
Heartbeat CPU 0 instructions: 690000000 cycles: 410875035 heartbeat IPC: 1.74076 cumulative IPC: 1.67807 (Simulation time: 1 hr 4 min 57 sec) 
Heartbeat CPU 0 instructions: 700000003 cycles: 416541790 heartbeat IPC: 1.76468 cumulative IPC: 1.67925 (Simulation time: 1 hr 5 min 47 sec) 
Heartbeat CPU 0 instructions: 710000003 cycles: 422506901 heartbeat IPC: 1.67641 cumulative IPC: 1.67921 (Simulation time: 1 hr 6 min 40 sec) 
Heartbeat CPU 0 instructions: 720000003 cycles: 428478005 heartbeat IPC: 1.67473 cumulative IPC: 1.67915 (Simulation time: 1 hr 7 min 34 sec) 
Heartbeat CPU 0 instructions: 730000000 cycles: 434370419 heartbeat IPC: 1.6971 cumulative IPC: 1.67939 (Simulation time: 1 hr 8 min 30 sec) 
Heartbeat CPU 0 instructions: 740000003 cycles: 440013973 heartbeat IPC: 1.77193 cumulative IPC: 1.68058 (Simulation time: 1 hr 9 min 24 sec) 
Heartbeat CPU 0 instructions: 750000000 cycles: 445789096 heartbeat IPC: 1.73156 cumulative IPC: 1.68124 (Simulation time: 1 hr 10 min 15 sec) 
Heartbeat CPU 0 instructions: 760000000 cycles: 451563416 heartbeat IPC: 1.73181 cumulative IPC: 1.68189 (Simulation time: 1 hr 11 min 6 sec) 
Heartbeat CPU 0 instructions: 770000000 cycles: 457710356 heartbeat IPC: 1.62683 cumulative IPC: 1.68115 (Simulation time: 1 hr 12 min 0 sec) 
Heartbeat CPU 0 instructions: 780000000 cycles: 463697803 heartbeat IPC: 1.67016 cumulative IPC: 1.68101 (Simulation time: 1 hr 12 min 57 sec) 
Heartbeat CPU 0 instructions: 790000001 cycles: 469570605 heartbeat IPC: 1.70276 cumulative IPC: 1.68128 (Simulation time: 1 hr 13 min 53 sec) 
Heartbeat CPU 0 instructions: 800000000 cycles: 475309982 heartbeat IPC: 1.74235 cumulative IPC: 1.68202 (Simulation time: 1 hr 14 min 48 sec) 
Heartbeat CPU 0 instructions: 810000000 cycles: 481098678 heartbeat IPC: 1.7275 cumulative IPC: 1.68257 (Simulation time: 1 hr 15 min 43 sec) 
Heartbeat CPU 0 instructions: 820000002 cycles: 486735682 heartbeat IPC: 1.77399 cumulative IPC: 1.68363 (Simulation time: 1 hr 16 min 34 sec) 
Heartbeat CPU 0 instructions: 830000000 cycles: 492549757 heartbeat IPC: 1.71996 cumulative IPC: 1.68405 (Simulation time: 1 hr 17 min 29 sec) 
Heartbeat CPU 0 instructions: 840000001 cycles: 498492555 heartbeat IPC: 1.68271 cumulative IPC: 1.68404 (Simulation time: 1 hr 18 min 24 sec) 
Heartbeat CPU 0 instructions: 850000004 cycles: 504644663 heartbeat IPC: 1.62546 cumulative IPC: 1.68332 (Simulation time: 1 hr 19 min 23 sec) 
Heartbeat CPU 0 instructions: 860000002 cycles: 510467373 heartbeat IPC: 1.71741 cumulative IPC: 1.68371 (Simulation time: 1 hr 20 min 18 sec) 
Heartbeat CPU 0 instructions: 870000000 cycles: 516666334 heartbeat IPC: 1.61317 cumulative IPC: 1.68287 (Simulation time: 1 hr 21 min 19 sec) 
Heartbeat CPU 0 instructions: 880000003 cycles: 522290339 heartbeat IPC: 1.77809 cumulative IPC: 1.68389 (Simulation time: 1 hr 22 min 13 sec) 
Heartbeat CPU 0 instructions: 890000001 cycles: 528235686 heartbeat IPC: 1.68199 cumulative IPC: 1.68387 (Simulation time: 1 hr 23 min 9 sec) 
Heartbeat CPU 0 instructions: 900000004 cycles: 534356973 heartbeat IPC: 1.63364 cumulative IPC: 1.6833 (Simulation time: 1 hr 24 min 9 sec) 
Heartbeat CPU 0 instructions: 910000002 cycles: 540323940 heartbeat IPC: 1.67589 cumulative IPC: 1.68321 (Simulation time: 1 hr 25 min 9 sec) 
Heartbeat CPU 0 instructions: 920000000 cycles: 545977797 heartbeat IPC: 1.7687 cumulative IPC: 1.6841 (Simulation time: 1 hr 26 min 6 sec) 
Heartbeat CPU 0 instructions: 930000002 cycles: 551767995 heartbeat IPC: 1.72706 cumulative IPC: 1.68455 (Simulation time: 1 hr 26 min 59 sec) 
Heartbeat CPU 0 instructions: 940000000 cycles: 557631481 heartbeat IPC: 1.70547 cumulative IPC: 1.68477 (Simulation time: 1 hr 27 min 50 sec) 
Heartbeat CPU 0 instructions: 950000001 cycles: 563839859 heartbeat IPC: 1.61073 cumulative IPC: 1.68395 (Simulation time: 1 hr 28 min 48 sec) 
Heartbeat CPU 0 instructions: 960000002 cycles: 569886548 heartbeat IPC: 1.6538 cumulative IPC: 1.68363 (Simulation time: 1 hr 29 min 46 sec) 
Heartbeat CPU 0 instructions: 970000004 cycles: 575788417 heartbeat IPC: 1.69438 cumulative IPC: 1.68374 (Simulation time: 1 hr 30 min 43 sec) 
Heartbeat CPU 0 instructions: 980000004 cycles: 581682836 heartbeat IPC: 1.69652 cumulative IPC: 1.68387 (Simulation time: 1 hr 31 min 41 sec) 
Heartbeat CPU 0 instructions: 990000003 cycles: 587341232 heartbeat IPC: 1.76729 cumulative IPC: 1.68468 (Simulation time: 1 hr 32 min 38 sec) 
Heartbeat CPU 0 instructions: 1000000000 cycles: 593071403 heartbeat IPC: 1.74515 cumulative IPC: 1.68526 (Simulation time: 1 hr 33 min 35 sec) 
Finished CPU 0 instructions: 1000000003 cycles: 593323092 cumulative IPC: 1.68542 (Simulation time: 1 hr 33 min 40 sec) 

ChampSim completed all CPUs

Region of Interest Statistics

CPU 0 cumulative IPC: 1.68542 instructions: 1000000003 cycles: 593323092
cpu0_DTLB TOTAL     ACCESS:  229190376  HIT:  228984582  MISS:     205794
cpu0_DTLB LOAD      ACCESS:  177725456  HIT:  177550794  MISS:     174662
cpu0_DTLB RFO       ACCESS:   51464920  HIT:   51433788  MISS:      31132
cpu0_DTLB PREFETCH  ACCESS:          0  HIT:          0  MISS:          0
cpu0_DTLB WRITEBACK ACCESS:          0  HIT:          0  MISS:          0
cpu0_DTLB TRANSLATION ACCESS:          0  HIT:          0  MISS:          0
cpu0_DTLB PREFETCH  REQUESTED:          0  ISSUED:          0  USEFUL:          0  USELESS:          0
cpu0_DTLB AVERAGE MISS LATENCY: 9.53512 cycles
cpu0_ITLB TOTAL     ACCESS:   67930398  HIT:   67872025  MISS:      58373
cpu0_ITLB LOAD      ACCESS:   67930398  HIT:   67872025  MISS:      58373
cpu0_ITLB RFO       ACCESS:          0  HIT:          0  MISS:          0
cpu0_ITLB PREFETCH  ACCESS:          0  HIT:          0  MISS:          0
cpu0_ITLB WRITEBACK ACCESS:          0  HIT:          0  MISS:          0
cpu0_ITLB TRANSLATION ACCESS:          0  HIT:          0  MISS:          0
cpu0_ITLB PREFETCH  REQUESTED:          0  ISSUED:          0  USEFUL:          0  USELESS:          0
cpu0_ITLB AVERAGE MISS LATENCY: 9.11401 cycles
cpu0_L1I TOTAL     ACCESS:   26593431  HIT:   25071196  MISS:    1522235
cpu0_L1I LOAD      ACCESS:   26593431  HIT:   25071196  MISS:    1522235
cpu0_L1I RFO       ACCESS:          0  HIT:          0  MISS:          0
cpu0_L1I PREFETCH  ACCESS:          0  HIT:          0  MISS:          0
cpu0_L1I WRITEBACK ACCESS:          0  HIT:          0  MISS:          0
cpu0_L1I TRANSLATION ACCESS:          0  HIT:          0  MISS:          0
cpu0_L1I PREFETCH  REQUESTED:          0  ISSUED:          0  USEFUL:          0  USELESS:          0
cpu0_L1I AVERAGE MISS LATENCY: 17.493 cycles
cpu0_STLB TOTAL     ACCESS:     264167  HIT:     263678  MISS:        489
cpu0_STLB LOAD      ACCESS:     233035  HIT:     232603  MISS:        432
cpu0_STLB RFO       ACCESS:      31132  HIT:      31075  MISS:         57
cpu0_STLB PREFETCH  ACCESS:          0  HIT:          0  MISS:          0
cpu0_STLB WRITEBACK ACCESS:          0  HIT:          0  MISS:          0
cpu0_STLB TRANSLATION ACCESS:          0  HIT:          0  MISS:          0
cpu0_STLB PREFETCH  REQUESTED:          0  ISSUED:          0  USEFUL:          0  USELESS:          0
cpu0_STLB AVERAGE MISS LATENCY: 224.781 cycles
cpu0_L1D TOTAL     ACCESS:  476118003  HIT:  468456591  MISS:    7661412
cpu0_L1D LOAD      ACCESS:  197775444  HIT:  196510406  MISS:    1265038
cpu0_L1D RFO       ACCESS:   88121362  HIT:   84895276  MISS:    3226086
cpu0_L1D PREFETCH  ACCESS:  190220709  HIT:  187050753  MISS:    3169956
cpu0_L1D WRITEBACK ACCESS:          0  HIT:          0  MISS:          0
cpu0_L1D TRANSLATION ACCESS:        488  HIT:        156  MISS:        332
cpu0_L1D PREFETCH  REQUESTED:  197977186  ISSUED:  192426855  USEFUL:    3033389  USELESS:     269680
cpu0_L1D AVERAGE MISS LATENCY: 17.2824 cycles
cpu0_L2C TOTAL     ACCESS:   16766935  HIT:   15375593  MISS:    1391342
cpu0_L2C LOAD      ACCESS:    2668185  HIT:    2269207  MISS:     398978
cpu0_L2C RFO       ACCESS:    3211358  HIT:    2589799  MISS:     621559
cpu0_L2C PREFETCH  ACCESS:    7026685  HIT:    6657878  MISS:     368807
cpu0_L2C WRITEBACK ACCESS:    3860375  HIT:    3858533  MISS:       1842
cpu0_L2C TRANSLATION ACCESS:        332  HIT:        176  MISS:        156
cpu0_L2C PREFETCH  REQUESTED:    3771266  ISSUED:    3729459  USEFUL:      54445  USELESS:      14377
cpu0_L2C AVERAGE MISS LATENCY: 32.7961 cycles
LLC TOTAL     ACCESS:    2103604  HIT:    2073334  MISS:      30270
LLC LOAD      ACCESS:     398945  HIT:     391052  MISS:       7893
LLC RFO       ACCESS:     621555  HIT:     617886  MISS:       3669
LLC PREFETCH  ACCESS:     369237  HIT:     350653  MISS:      18584
LLC WRITEBACK ACCESS:     713711  HIT:     713590  MISS:        121
LLC TRANSLATION ACCESS:        156  HIT:        153  MISS:          3
LLC PREFETCH  REQUESTED:          0  ISSUED:          0  USEFUL:          0  USELESS:          0
LLC AVERAGE MISS LATENCY: 268.362 cycles

DRAM Statistics
 CHANNEL 0
 RQ ROW_BUFFER_HIT:       8773  ROW_BUFFER_MISS:      21375
 DBUS AVG_CONGESTED_CYCLE:    3.65532
 WQ ROW_BUFFER_HIT:         62  ROW_BUFFER_MISS:        578  FULL:          0


CPU 0 Branch Prediction Accuracy: 92.4109% MPKI: 8.46361 Average ROB Occupancy at Mispredict: 86.2004
Branch type MPKI
BRANCH_DIRECT_JUMP: 0.000141
BRANCH_INDIRECT: 0.00483
BRANCH_CONDITIONAL: 8.45841
BRANCH_DIRECT_CALL: 0.000139
BRANCH_INDIRECT_CALL: 0
BRANCH_RETURN: 9.1e-05

