
*** ChampSim Multicore Out-of-Order Simulator ***

Warmup Instructions: 200000000
Simulation Instructions: 1000000000
Number of CPUs: 1
Off-chip DRAM Size: 4 GiB Channels: 1 Width: 64-bit Data Rate: 3200 MT/s

VirtualMemory physical capacity: 8588881920 num_ppages: 2096895
VirtualMemory page size: 4096 log2_page_size: 12

CPU 0 runs tracer/pin/traces/spec2k6/429.mcf-51B.champsimtrace.xz
Basic BTB sets: 1024 ways: 8 indirect buffer size: 4096 RAS size: 64
cpu0_L1D next line prefetcher
cpu0_L2C IP-based stride prefetcher
WARNING: The extended signature CACHE::prefetch_line(ip, base_addr, pf_addr, fill_this_level, prefetch_metadata) is deprecated.
WARNING: Use CACHE::prefetch_line(pf_addr, fill_this_level, prefetch_metadata) instead.
Heartbeat CPU 0 instructions: 10000000 cycles: 3226836 heartbeat IPC: 3.09901 cumulative IPC: 3.09901 (Simulation time: 0 hr 0 min 43 sec) 
Heartbeat CPU 0 instructions: 20000002 cycles: 6434630 heartbeat IPC: 3.11741 cumulative IPC: 3.10818 (Simulation time: 0 hr 1 min 26 sec) 
Heartbeat CPU 0 instructions: 30000000 cycles: 9668954 heartbeat IPC: 3.09184 cumulative IPC: 3.10271 (Simulation time: 0 hr 2 min 10 sec) 
Heartbeat CPU 0 instructions: 40000004 cycles: 12865618 heartbeat IPC: 3.12826 cumulative IPC: 3.10906 (Simulation time: 0 hr 2 min 53 sec) 
Heartbeat CPU 0 instructions: 50000001 cycles: 16073199 heartbeat IPC: 3.11761 cumulative IPC: 3.11077 (Simulation time: 0 hr 3 min 37 sec) 
Heartbeat CPU 0 instructions: 60000002 cycles: 19262144 heartbeat IPC: 3.13583 cumulative IPC: 3.11492 (Simulation time: 0 hr 4 min 23 sec) 
Heartbeat CPU 0 instructions: 70000001 cycles: 22461267 heartbeat IPC: 3.12586 cumulative IPC: 3.11648 (Simulation time: 0 hr 5 min 8 sec) 
Heartbeat CPU 0 instructions: 80000000 cycles: 25649839 heartbeat IPC: 3.1362 cumulative IPC: 3.11893 (Simulation time: 0 hr 5 min 51 sec) 
Heartbeat CPU 0 instructions: 90000001 cycles: 28786026 heartbeat IPC: 3.18859 cumulative IPC: 3.12652 (Simulation time: 0 hr 6 min 33 sec) 
Heartbeat CPU 0 instructions: 100000001 cycles: 31998801 heartbeat IPC: 3.11257 cumulative IPC: 3.12512 (Simulation time: 0 hr 7 min 18 sec) 
Heartbeat CPU 0 instructions: 110000002 cycles: 35158521 heartbeat IPC: 3.16484 cumulative IPC: 3.12869 (Simulation time: 0 hr 8 min 4 sec) 
Heartbeat CPU 0 instructions: 120000000 cycles: 38357029 heartbeat IPC: 3.12646 cumulative IPC: 3.1285 (Simulation time: 0 hr 8 min 48 sec) 
Heartbeat CPU 0 instructions: 130000003 cycles: 41491385 heartbeat IPC: 3.19045 cumulative IPC: 3.13318 (Simulation time: 0 hr 9 min 33 sec) 
Heartbeat CPU 0 instructions: 140000003 cycles: 44695946 heartbeat IPC: 3.12055 cumulative IPC: 3.13228 (Simulation time: 0 hr 10 min 16 sec) 
Heartbeat CPU 0 instructions: 150000002 cycles: 47910364 heartbeat IPC: 3.11098 cumulative IPC: 3.13085 (Simulation time: 0 hr 11 min 0 sec) 
Heartbeat CPU 0 instructions: 160000003 cycles: 51100738 heartbeat IPC: 3.13443 cumulative IPC: 3.13107 (Simulation time: 0 hr 11 min 46 sec) 
Heartbeat CPU 0 instructions: 170000003 cycles: 54199278 heartbeat IPC: 3.22733 cumulative IPC: 3.13657 (Simulation time: 0 hr 12 min 30 sec) 
Heartbeat CPU 0 instructions: 180000000 cycles: 57369403 heartbeat IPC: 3.15445 cumulative IPC: 3.13756 (Simulation time: 0 hr 13 min 17 sec) 
Heartbeat CPU 0 instructions: 190000004 cycles: 60529722 heartbeat IPC: 3.16424 cumulative IPC: 3.13895 (Simulation time: 0 hr 14 min 2 sec) 
Heartbeat CPU 0 instructions: 200000002 cycles: 63670825 heartbeat IPC: 3.18359 cumulative IPC: 3.14116 (Simulation time: 0 hr 14 min 49 sec) 

Warmup complete CPU 0 instructions: 200000002 cycles: 63670825 (Simulation time: 0 hr 14 min 49 sec) 

Heartbeat CPU 0 instructions: 210000003 cycles: 212288730 heartbeat IPC: 0.0672866 cumulative IPC: 0.0672866 (Simulation time: 0 hr 21 min 18 sec) 
Heartbeat CPU 0 instructions: 220000001 cycles: 390535876 heartbeat IPC: 0.0561019 cumulative IPC: 0.0611873 (Simulation time: 0 hr 28 min 22 sec) 
Heartbeat CPU 0 instructions: 230000002 cycles: 550293431 heartbeat IPC: 0.0625949 cumulative IPC: 0.0616494 (Simulation time: 0 hr 35 min 21 sec) 
Heartbeat CPU 0 instructions: 240000000 cycles: 704182795 heartbeat IPC: 0.0649817 cumulative IPC: 0.06245 (Simulation time: 0 hr 42 min 12 sec) 
Heartbeat CPU 0 instructions: 250000000 cycles: 892173987 heartbeat IPC: 0.053194 cumulative IPC: 0.0603498 (Simulation time: 0 hr 49 min 45 sec) 
Heartbeat CPU 0 instructions: 260000004 cycles: 1070173259 heartbeat IPC: 0.05618 cumulative IPC: 0.0596124 (Simulation time: 0 hr 55 min 57 sec) 
Heartbeat CPU 0 instructions: 270000004 cycles: 1256876553 heartbeat IPC: 0.0535609 cumulative IPC: 0.0586655 (Simulation time: 1 hr 2 min 35 sec) 
Heartbeat CPU 0 instructions: 280000000 cycles: 1413385722 heartbeat IPC: 0.063894 cumulative IPC: 0.0592718 (Simulation time: 1 hr 8 min 48 sec) 
Heartbeat CPU 0 instructions: 290000004 cycles: 1583373804 heartbeat IPC: 0.0588277 cumulative IPC: 0.0592221 (Simulation time: 1 hr 14 min 38 sec) 
Heartbeat CPU 0 instructions: 300000000 cycles: 1738424206 heartbeat IPC: 0.0644951 cumulative IPC: 0.0597103 (Simulation time: 1 hr 20 min 38 sec) 
Heartbeat CPU 0 instructions: 310000001 cycles: 1911951682 heartbeat IPC: 0.0576278 cumulative IPC: 0.0595148 (Simulation time: 1 hr 27 min 16 sec) 
Heartbeat CPU 0 instructions: 320000002 cycles: 2074485477 heartbeat IPC: 0.0615257 cumulative IPC: 0.0596773 (Simulation time: 1 hr 33 min 16 sec) 
Heartbeat CPU 0 instructions: 330000004 cycles: 2243526989 heartbeat IPC: 0.0591571 cumulative IPC: 0.059637 (Simulation time: 1 hr 39 min 24 sec) 
Heartbeat CPU 0 instructions: 340000000 cycles: 2405055227 heartbeat IPC: 0.0619087 cumulative IPC: 0.0597937 (Simulation time: 1 hr 45 min 10 sec) 
Heartbeat CPU 0 instructions: 350000004 cycles: 2557893821 heartbeat IPC: 0.0654285 cumulative IPC: 0.060139 (Simulation time: 1 hr 50 min 28 sec) 
Heartbeat CPU 0 instructions: 360000000 cycles: 2712425973 heartbeat IPC: 0.0647114 cumulative IPC: 0.0604057 (Simulation time: 1 hr 55 min 7 sec) 
Heartbeat CPU 0 instructions: 370000004 cycles: 2880485789 heartbeat IPC: 0.0595026 cumulative IPC: 0.0603519 (Simulation time: 2 hr 0 min 6 sec) 
Heartbeat CPU 0 instructions: 380000000 cycles: 3033955260 heartbeat IPC: 0.0651595 cumulative IPC: 0.0606003 (Simulation time: 2 hr 4 min 48 sec) 
Heartbeat CPU 0 instructions: 390000001 cycles: 3190024906 heartbeat IPC: 0.064074 cumulative IPC: 0.0607737 (Simulation time: 2 hr 9 min 36 sec) 
Heartbeat CPU 0 instructions: 400000000 cycles: 3359557455 heartbeat IPC: 0.0589857 cumulative IPC: 0.0606817 (Simulation time: 2 hr 14 min 43 sec) 
Heartbeat CPU 0 instructions: 410000001 cycles: 3535847408 heartbeat IPC: 0.0567247 cumulative IPC: 0.0604808 (Simulation time: 2 hr 19 min 52 sec) 
Heartbeat CPU 0 instructions: 420000000 cycles: 3702270751 heartbeat IPC: 0.0600877 cumulative IPC: 0.0604628 (Simulation time: 2 hr 25 min 6 sec) 
Heartbeat CPU 0 instructions: 430000002 cycles: 3891763471 heartbeat IPC: 0.0527725 cumulative IPC: 0.0600821 (Simulation time: 2 hr 30 min 27 sec) 
Heartbeat CPU 0 instructions: 440000001 cycles: 4041923261 heartbeat IPC: 0.0665957 cumulative IPC: 0.060328 (Simulation time: 2 hr 34 min 43 sec) 
Heartbeat CPU 0 instructions: 450000002 cycles: 4188013332 heartbeat IPC: 0.0684509 cumulative IPC: 0.0606157 (Simulation time: 2 hr 38 min 57 sec) 
Heartbeat CPU 0 instructions: 460000001 cycles: 4346044996 heartbeat IPC: 0.0632785 cumulative IPC: 0.060714 (Simulation time: 2 hr 43 min 37 sec) 
Heartbeat CPU 0 instructions: 470000001 cycles: 4526520016 heartbeat IPC: 0.0554093 cumulative IPC: 0.0604995 (Simulation time: 2 hr 48 min 46 sec) 
Heartbeat CPU 0 instructions: 480000000 cycles: 4747856350 heartbeat IPC: 0.0451801 cumulative IPC: 0.0597756 (Simulation time: 2 hr 54 min 37 sec) 
Heartbeat CPU 0 instructions: 490000001 cycles: 4901009312 heartbeat IPC: 0.0652942 cumulative IPC: 0.0599503 (Simulation time: 2 hr 59 min 2 sec) 
Heartbeat CPU 0 instructions: 500000002 cycles: 5073532575 heartbeat IPC: 0.0579632 cumulative IPC: 0.0598819 (Simulation time: 3 hr 3 min 51 sec) 
Heartbeat CPU 0 instructions: 510000000 cycles: 5216893570 heartbeat IPC: 0.069754 cumulative IPC: 0.0601565 (Simulation time: 3 hr 8 min 1 sec) 
Heartbeat CPU 0 instructions: 520000002 cycles: 5386920201 heartbeat IPC: 0.0588143 cumulative IPC: 0.0601137 (Simulation time: 3 hr 12 min 49 sec) 
Heartbeat CPU 0 instructions: 530000002 cycles: 5531165846 heartbeat IPC: 0.0693262 cumulative IPC: 0.0603567 (Simulation time: 3 hr 17 min 1 sec) 
Heartbeat CPU 0 instructions: 540000000 cycles: 5704116084 heartbeat IPC: 0.0578201 cumulative IPC: 0.0602789 (Simulation time: 3 hr 21 min 45 sec) 
Heartbeat CPU 0 instructions: 550000000 cycles: 5842422461 heartbeat IPC: 0.0723032 cumulative IPC: 0.0605667 (Simulation time: 3 hr 25 min 57 sec) 
Heartbeat CPU 0 instructions: 560000001 cycles: 6002314029 heartbeat IPC: 0.0625424 cumulative IPC: 0.0606199 (Simulation time: 3 hr 30 min 33 sec) 
Heartbeat CPU 0 instructions: 570000002 cycles: 6142894939 heartbeat IPC: 0.0711334 cumulative IPC: 0.060863 (Simulation time: 3 hr 34 min 37 sec) 
Heartbeat CPU 0 instructions: 580000001 cycles: 6281109974 heartbeat IPC: 0.072351 cumulative IPC: 0.0611184 (Simulation time: 3 hr 38 min 37 sec) 
Heartbeat CPU 0 instructions: 590000001 cycles: 6439632208 heartbeat IPC: 0.0630826 cumulative IPC: 0.0611672 (Simulation time: 3 hr 43 min 1 sec) 
Heartbeat CPU 0 instructions: 600000001 cycles: 6602407340 heartbeat IPC: 0.0614344 cumulative IPC: 0.0611739 (Simulation time: 3 hr 47 min 52 sec) 
Heartbeat CPU 0 instructions: 610000001 cycles: 6741054403 heartbeat IPC: 0.0721256 cumulative IPC: 0.0614013 (Simulation time: 3 hr 52 min 14 sec) 
Heartbeat CPU 0 instructions: 620000000 cycles: 6919495283 heartbeat IPC: 0.056041 cumulative IPC: 0.0612618 (Simulation time: 3 hr 57 min 13 sec) 
Heartbeat CPU 0 instructions: 630000002 cycles: 7058518637 heartbeat IPC: 0.0719304 cumulative IPC: 0.0614738 (Simulation time: 4 hr 1 min 13 sec) 
Heartbeat CPU 0 instructions: 640000000 cycles: 7232527936 heartbeat IPC: 0.0574682 cumulative IPC: 0.0613766 (Simulation time: 4 hr 6 min 14 sec) 
Heartbeat CPU 0 instructions: 650000001 cycles: 7387124031 heartbeat IPC: 0.0646847 cumulative IPC: 0.0614464 (Simulation time: 4 hr 10 min 42 sec) 
Heartbeat CPU 0 instructions: 660000003 cycles: 7542592106 heartbeat IPC: 0.0643219 cumulative IPC: 0.0615062 (Simulation time: 4 hr 15 min 9 sec) 
Heartbeat CPU 0 instructions: 670000000 cycles: 7707311875 heartbeat IPC: 0.0607091 cumulative IPC: 0.061489 (Simulation time: 4 hr 19 min 52 sec) 
Heartbeat CPU 0 instructions: 680000000 cycles: 7851127690 heartbeat IPC: 0.0695334 cumulative IPC: 0.0616376 (Simulation time: 4 hr 23 min 58 sec) 
Heartbeat CPU 0 instructions: 690000003 cycles: 7985810969 heartbeat IPC: 0.0742483 cumulative IPC: 0.061852 (Simulation time: 4 hr 27 min 53 sec) 
Heartbeat CPU 0 instructions: 700000001 cycles: 8147348096 heartbeat IPC: 0.0619053 cumulative IPC: 0.061853 (Simulation time: 4 hr 32 min 42 sec) 
Heartbeat CPU 0 instructions: 710000004 cycles: 8333665514 heartbeat IPC: 0.0536719 cumulative IPC: 0.0616687 (Simulation time: 4 hr 38 min 7 sec) 
Heartbeat CPU 0 instructions: 720000000 cycles: 8479196478 heartbeat IPC: 0.0687139 cumulative IPC: 0.0617906 (Simulation time: 4 hr 42 min 44 sec) 
Heartbeat CPU 0 instructions: 730000000 cycles: 8642871289 heartbeat IPC: 0.0610968 cumulative IPC: 0.0617773 (Simulation time: 4 hr 47 min 36 sec) 
Heartbeat CPU 0 instructions: 740000000 cycles: 8787560500 heartbeat IPC: 0.0691137 cumulative IPC: 0.061899 (Simulation time: 4 hr 51 min 54 sec) 
Heartbeat CPU 0 instructions: 750000000 cycles: 8956076579 heartbeat IPC: 0.0593415 cumulative IPC: 0.0618505 (Simulation time: 4 hr 56 min 46 sec) 
Heartbeat CPU 0 instructions: 760000000 cycles: 9096312991 heartbeat IPC: 0.0713082 cumulative IPC: 0.0619974 (Simulation time: 5 hr 1 min 5 sec) 
Heartbeat CPU 0 instructions: 770000004 cycles: 9276658613 heartbeat IPC: 0.0554491 cumulative IPC: 0.0618692 (Simulation time: 5 hr 6 min 12 sec) 
Heartbeat CPU 0 instructions: 780000000 cycles: 9420229616 heartbeat IPC: 0.0696519 cumulative IPC: 0.0619886 (Simulation time: 5 hr 10 min 24 sec) 
Heartbeat CPU 0 instructions: 790000000 cycles: 9590116485 heartbeat IPC: 0.0588627 cumulative IPC: 0.0619329 (Simulation time: 5 hr 15 min 8 sec) 
Heartbeat CPU 0 instructions: 800000001 cycles: 9726310573 heartbeat IPC: 0.0734246 cumulative IPC: 0.0620948 (Simulation time: 5 hr 19 min 13 sec) 
Heartbeat CPU 0 instructions: 810000001 cycles: 9881628851 heartbeat IPC: 0.0643839 cumulative IPC: 0.062131 (Simulation time: 5 hr 23 min 37 sec) 
Heartbeat CPU 0 instructions: 820000000 cycles: 10052200137 heartbeat IPC: 0.0586265 cumulative IPC: 0.0620712 (Simulation time: 5 hr 28 min 30 sec) 
Heartbeat CPU 0 instructions: 830000000 cycles: 10206858250 heartbeat IPC: 0.0646587 cumulative IPC: 0.0621107 (Simulation time: 5 hr 33 min 4 sec) 
Heartbeat CPU 0 instructions: 840000000 cycles: 10374241579 heartbeat IPC: 0.0597431 cumulative IPC: 0.0620722 (Simulation time: 5 hr 38 min 0 sec) 
Heartbeat CPU 0 instructions: 850000002 cycles: 10540044943 heartbeat IPC: 0.0603124 cumulative IPC: 0.0620444 (Simulation time: 5 hr 42 min 55 sec) 
Heartbeat CPU 0 instructions: 860000002 cycles: 10692136249 heartbeat IPC: 0.06575 cumulative IPC: 0.0620974 (Simulation time: 5 hr 47 min 31 sec) 
Heartbeat CPU 0 instructions: 870000002 cycles: 10862190596 heartbeat IPC: 0.0588047 cumulative IPC: 0.0620455 (Simulation time: 5 hr 52 min 31 sec) 
Heartbeat CPU 0 instructions: 880000000 cycles: 11000722583 heartbeat IPC: 0.0721855 cumulative IPC: 0.062174 (Simulation time: 5 hr 56 min 50 sec) 
Heartbeat CPU 0 instructions: 890000002 cycles: 11177449000 heartbeat IPC: 0.0565846 cumulative IPC: 0.0620851 (Simulation time: 6 hr 1 min 50 sec) 
Heartbeat CPU 0 instructions: 900000002 cycles: 11338128738 heartbeat IPC: 0.0622356 cumulative IPC: 0.0620872 (Simulation time: 6 hr 6 min 26 sec) 
Heartbeat CPU 0 instructions: 910000001 cycles: 11487353940 heartbeat IPC: 0.0670128 cumulative IPC: 0.0621516 (Simulation time: 6 hr 10 min 40 sec) 
Heartbeat CPU 0 instructions: 920000001 cycles: 11624374130 heartbeat IPC: 0.0729819 cumulative IPC: 0.0622799 (Simulation time: 6 hr 14 min 28 sec) 
Heartbeat CPU 0 instructions: 930000002 cycles: 11794157308 heartbeat IPC: 0.0588987 cumulative IPC: 0.062231 (Simulation time: 6 hr 19 min 23 sec) 
Heartbeat CPU 0 instructions: 940000000 cycles: 11935220933 heartbeat IPC: 0.07089 cumulative IPC: 0.0623339 (Simulation time: 6 hr 23 min 38 sec) 
Heartbeat CPU 0 instructions: 950000004 cycles: 12107563194 heartbeat IPC: 0.0580241 cumulative IPC: 0.0622722 (Simulation time: 6 hr 28 min 23 sec) 
Heartbeat CPU 0 instructions: 960000002 cycles: 12265365878 heartbeat IPC: 0.0633703 cumulative IPC: 0.0622864 (Simulation time: 6 hr 32 min 45 sec) 
Heartbeat CPU 0 instructions: 970000003 cycles: 12406104050 heartbeat IPC: 0.0710539 cumulative IPC: 0.0623864 (Simulation time: 6 hr 37 min 5 sec) 
Heartbeat CPU 0 instructions: 980000000 cycles: 12582913287 heartbeat IPC: 0.0565581 cumulative IPC: 0.0623041 (Simulation time: 6 hr 42 min 9 sec) 
Heartbeat CPU 0 instructions: 990000004 cycles: 12729163829 heartbeat IPC: 0.0683758 cumulative IPC: 0.0623742 (Simulation time: 6 hr 46 min 23 sec) 
Heartbeat CPU 0 instructions: 1000000003 cycles: 12900861449 heartbeat IPC: 0.0582419 cumulative IPC: 0.0623189 (Simulation time: 6 hr 51 min 5 sec) 
Heartbeat CPU 0 instructions: 1010000002 cycles: 13052154339 heartbeat IPC: 0.066097 cumulative IPC: 0.0623629 (Simulation time: 6 hr 55 min 31 sec) 
Heartbeat CPU 0 instructions: 1020000000 cycles: 13230704017 heartbeat IPC: 0.0560068 cumulative IPC: 0.0622767 (Simulation time: 7 hr 0 min 38 sec) 
Heartbeat CPU 0 instructions: 1030000002 cycles: 13374907250 heartbeat IPC: 0.0693466 cumulative IPC: 0.0623533 (Simulation time: 7 hr 5 min 6 sec) 
Heartbeat CPU 0 instructions: 1040000003 cycles: 13541413630 heartbeat IPC: 0.0600578 cumulative IPC: 0.062325 (Simulation time: 7 hr 9 min 51 sec) 
Heartbeat CPU 0 instructions: 1050000001 cycles: 13713309711 heartbeat IPC: 0.0581747 cumulative IPC: 0.0622727 (Simulation time: 7 hr 14 min 38 sec) 
Heartbeat CPU 0 instructions: 1060000000 cycles: 13855370602 heartbeat IPC: 0.0703923 cumulative IPC: 0.0623563 (Simulation time: 7 hr 18 min 53 sec) 
Heartbeat CPU 0 instructions: 1070000000 cycles: 14032951619 heartbeat IPC: 0.0563123 cumulative IPC: 0.0622795 (Simulation time: 7 hr 23 min 42 sec) 
Heartbeat CPU 0 instructions: 1080000000 cycles: 14175836173 heartbeat IPC: 0.0699866 cumulative IPC: 0.0623575 (Simulation time: 7 hr 27 min 44 sec) 
Heartbeat CPU 0 instructions: 1090000004 cycles: 14327929980 heartbeat IPC: 0.0657489 cumulative IPC: 0.0623937 (Simulation time: 7 hr 32 min 7 sec) 
Heartbeat CPU 0 instructions: 1100000000 cycles: 14484448685 heartbeat IPC: 0.0638901 cumulative IPC: 0.0624099 (Simulation time: 7 hr 36 min 41 sec) 
Heartbeat CPU 0 instructions: 1110000000 cycles: 14658835081 heartbeat IPC: 0.0573439 cumulative IPC: 0.0623494 (Simulation time: 7 hr 41 min 30 sec) 
Heartbeat CPU 0 instructions: 1120000001 cycles: 14839790936 heartbeat IPC: 0.0552621 cumulative IPC: 0.0622626 (Simulation time: 7 hr 46 min 28 sec) 
Heartbeat CPU 0 instructions: 1130000001 cycles: 14992736768 heartbeat IPC: 0.0653826 cumulative IPC: 0.0622946 (Simulation time: 7 hr 50 min 52 sec) 
Heartbeat CPU 0 instructions: 1140000001 cycles: 15162616000 heartbeat IPC: 0.0588653 cumulative IPC: 0.062256 (Simulation time: 7 hr 55 min 40 sec) 
Heartbeat CPU 0 instructions: 1150000004 cycles: 15327714690 heartbeat IPC: 0.0605698 cumulative IPC: 0.0622378 (Simulation time: 8 hr 0 min 16 sec) 
Heartbeat CPU 0 instructions: 1160000000 cycles: 15475921933 heartbeat IPC: 0.0674731 cumulative IPC: 0.0622881 (Simulation time: 8 hr 4 min 26 sec) 
Heartbeat CPU 0 instructions: 1170000001 cycles: 15647918520 heartbeat IPC: 0.0581407 cumulative IPC: 0.0622423 (Simulation time: 8 hr 8 min 57 sec) 
Heartbeat CPU 0 instructions: 1180000003 cycles: 15793707649 heartbeat IPC: 0.0685922 cumulative IPC: 0.0623012 (Simulation time: 8 hr 12 min 54 sec) 
Heartbeat CPU 0 instructions: 1190000000 cycles: 15954467339 heartbeat IPC: 0.0622046 cumulative IPC: 0.0623002 (Simulation time: 8 hr 17 min 15 sec) 
Heartbeat CPU 0 instructions: 1200000003 cycles: 16121346333 heartbeat IPC: 0.0599237 cumulative IPC: 0.0622755 (Simulation time: 8 hr 21 min 51 sec) 
Finished CPU 0 instructions: 1000000001 cycles: 16057675508 cumulative IPC: 0.0622755 (Simulation time: 8 hr 21 min 51 sec) 

ChampSim completed all CPUs

Region of Interest Statistics

CPU 0 cumulative IPC: 0.0622755 instructions: 1000000001 cycles: 16057675508
cpu0_DTLB TOTAL     ACCESS:  223643204  HIT:  144090557  MISS:   79552647
cpu0_DTLB LOAD      ACCESS:  189394829  HIT:  115974439  MISS:   73420390
cpu0_DTLB RFO       ACCESS:   34248375  HIT:   28116118  MISS:    6132257
cpu0_DTLB PREFETCH  ACCESS:          0  HIT:          0  MISS:          0
cpu0_DTLB WRITEBACK ACCESS:          0  HIT:          0  MISS:          0
cpu0_DTLB TRANSLATION ACCESS:          0  HIT:          0  MISS:          0
cpu0_DTLB PREFETCH  REQUESTED:          0  ISSUED:          0  USEFUL:          0  USELESS:          0
cpu0_DTLB AVERAGE MISS LATENCY: 11.7551 cycles
cpu0_ITLB TOTAL     ACCESS:  115422159  HIT:  115422159  MISS:          0
cpu0_ITLB LOAD      ACCESS:  115422159  HIT:  115422159  MISS:          0
cpu0_ITLB RFO       ACCESS:          0  HIT:          0  MISS:          0
cpu0_ITLB PREFETCH  ACCESS:          0  HIT:          0  MISS:          0
cpu0_ITLB WRITEBACK ACCESS:          0  HIT:          0  MISS:          0
cpu0_ITLB TRANSLATION ACCESS:          0  HIT:          0  MISS:          0
cpu0_ITLB PREFETCH  REQUESTED:          0  ISSUED:          0  USEFUL:          0  USELESS:          0
cpu0_ITLB AVERAGE MISS LATENCY: -nan cycles
cpu0_L1I TOTAL     ACCESS:        536  HIT:        536  MISS:          0
cpu0_L1I LOAD      ACCESS:        536  HIT:        536  MISS:          0
cpu0_L1I RFO       ACCESS:          0  HIT:          0  MISS:          0
cpu0_L1I PREFETCH  ACCESS:          0  HIT:          0  MISS:          0
cpu0_L1I WRITEBACK ACCESS:          0  HIT:          0  MISS:          0
cpu0_L1I TRANSLATION ACCESS:          0  HIT:          0  MISS:          0
cpu0_L1I PREFETCH  REQUESTED:          0  ISSUED:          0  USEFUL:          0  USELESS:          0
cpu0_L1I AVERAGE MISS LATENCY: -nan cycles
cpu0_STLB TOTAL     ACCESS:   79552648  HIT:   68581020  MISS:   10971628
cpu0_STLB LOAD      ACCESS:   73420391  HIT:   62548459  MISS:   10871932
cpu0_STLB RFO       ACCESS:    6132257  HIT:    6032561  MISS:      99696
cpu0_STLB PREFETCH  ACCESS:          0  HIT:          0  MISS:          0
cpu0_STLB WRITEBACK ACCESS:          0  HIT:          0  MISS:          0
cpu0_STLB TRANSLATION ACCESS:          0  HIT:          0  MISS:          0
cpu0_STLB PREFETCH  REQUESTED:          0  ISSUED:          0  USEFUL:          0  USELESS:          0
cpu0_STLB AVERAGE MISS LATENCY: 19.8825 cycles
cpu0_L1D TOTAL     ACCESS:  447825710  HIT:  259577831  MISS:  188247879
cpu0_L1D LOAD      ACCESS:  216730096  HIT:  116001893  MISS:  100728203
cpu0_L1D RFO       ACCESS:   44414627  HIT:   40260112  MISS:    4154515
cpu0_L1D PREFETCH  ACCESS:  175749946  HIT:   94580743  MISS:   81169203
cpu0_L1D WRITEBACK ACCESS:          0  HIT:          0  MISS:          0
cpu0_L1D TRANSLATION ACCESS:   10931041  HIT:    8735083  MISS:    2195958
cpu0_L1D PREFETCH  REQUESTED:  217861711  ISSUED:  198804365  USEFUL:   25259883  USELESS:   57280241
cpu0_L1D AVERAGE MISS LATENCY: 322.194 cycles
cpu0_L2C TOTAL     ACCESS:  214475140  HIT:   82198880  MISS:  132276260
cpu0_L2C LOAD      ACCESS:   99355110  HIT:   32830444  MISS:   66524666
cpu0_L2C RFO       ACCESS:    4153986  HIT:    2398812  MISS:    1755174
cpu0_L2C PREFETCH  ACCESS:   82734378  HIT:   19540791  MISS:   63193587
cpu0_L2C WRITEBACK ACCESS:   26035708  HIT:   26033938  MISS:       1770
cpu0_L2C TRANSLATION ACCESS:    2195958  HIT:    1394895  MISS:     801063
cpu0_L2C PREFETCH  REQUESTED:     206752  ISSUED:     203634  USEFUL:      29959  USELESS:      89893
cpu0_L2C AVERAGE MISS LATENCY: 445.142 cycles
LLC TOTAL     ACCESS:  150165205  HIT:   65682852  MISS:   84482353
LLC LOAD      ACCESS:   66524204  HIT:   30421326  MISS:   36102878
LLC RFO       ACCESS:    1755119  HIT:     529198  MISS:    1225921
LLC PREFETCH  ACCESS:   63194703  HIT:   16374885  MISS:   46819818
LLC WRITEBACK ACCESS:   17890116  HIT:   17567882  MISS:     322234
LLC TRANSLATION ACCESS:     801063  HIT:     789561  MISS:      11502
LLC PREFETCH  REQUESTED:          0  ISSUED:          0  USEFUL:          0  USELESS:          0
LLC AVERAGE MISS LATENCY: 654.707 cycles

DRAM Statistics
 CHANNEL 0
 RQ ROW_BUFFER_HIT:     203354  ROW_BUFFER_MISS:   83926822
 DBUS AVG_CONGESTED_CYCLE:    3.89719
 WQ ROW_BUFFER_HIT:      75842  ROW_BUFFER_MISS:   15314554  FULL:          0


CPU 0 Branch Prediction Accuracy: 86.8591% MPKI: 31.4955 Average ROB Occupancy at Mispredict: 19.5148
Branch type MPKI
BRANCH_DIRECT_JUMP: 1e-06
BRANCH_INDIRECT: 0
BRANCH_CONDITIONAL: 31.4955
BRANCH_DIRECT_CALL: 0
BRANCH_INDIRECT_CALL: 0
BRANCH_RETURN: 0

