
*** ChampSim Multicore Out-of-Order Simulator ***

Warmup Instructions: 1000000
Simulation Instructions: 1000000000
Number of CPUs: 1
Off-chip DRAM Size: 4 GiB Channels: 1 Width: 64-bit Data Rate: 3200 MT/s

VirtualMemory physical capacity: 8588881920 num_ppages: 2096895
VirtualMemory page size: 4096 log2_page_size: 12

CPU 0 runs tracer/pin/traces/spec2k17/638.imagick_s-10316B.champsimtrace.xz
Basic BTB sets: 1024 ways: 8 indirect buffer size: 4096 RAS size: 64
cpu0_L1D next line prefetcher
cpu0_L2C IP-based stride prefetcher
WARNING: The extended signature CACHE::prefetch_line(ip, base_addr, pf_addr, fill_this_level, prefetch_metadata) is deprecated.
WARNING: Use CACHE::prefetch_line(pf_addr, fill_this_level, prefetch_metadata) instead.

Warmup complete CPU 0 instructions: 1000002 cycles: 250064 (Simulation time: 0 hr 0 min 3 sec) 

Heartbeat CPU 0 instructions: 10000002 cycles: 3857539 heartbeat IPC: 2.59233 cumulative IPC: 2.49482 (Simulation time: 0 hr 0 min 42 sec) 
Heartbeat CPU 0 instructions: 20000002 cycles: 7851142 heartbeat IPC: 2.504 cumulative IPC: 2.49965 (Simulation time: 0 hr 1 min 25 sec) 
Heartbeat CPU 0 instructions: 30000000 cycles: 11868192 heartbeat IPC: 2.48939 cumulative IPC: 2.4961 (Simulation time: 0 hr 2 min 9 sec) 
Heartbeat CPU 0 instructions: 40000002 cycles: 15907625 heartbeat IPC: 2.4756 cumulative IPC: 2.49081 (Simulation time: 0 hr 2 min 53 sec) 
Heartbeat CPU 0 instructions: 50000002 cycles: 19932255 heartbeat IPC: 2.4847 cumulative IPC: 2.48956 (Simulation time: 0 hr 3 min 39 sec) 
Heartbeat CPU 0 instructions: 60000000 cycles: 23942982 heartbeat IPC: 2.49331 cumulative IPC: 2.4902 (Simulation time: 0 hr 4 min 25 sec) 
Heartbeat CPU 0 instructions: 70000000 cycles: 27965706 heartbeat IPC: 2.48588 cumulative IPC: 2.48957 (Simulation time: 0 hr 5 min 11 sec) 
Heartbeat CPU 0 instructions: 80000001 cycles: 31966371 heartbeat IPC: 2.49958 cumulative IPC: 2.49083 (Simulation time: 0 hr 5 min 57 sec) 
Heartbeat CPU 0 instructions: 90000002 cycles: 35979609 heartbeat IPC: 2.49175 cumulative IPC: 2.49094 (Simulation time: 0 hr 6 min 43 sec) 
Heartbeat CPU 0 instructions: 100000001 cycles: 40021086 heartbeat IPC: 2.47434 cumulative IPC: 2.48925 (Simulation time: 0 hr 7 min 30 sec) 
Heartbeat CPU 0 instructions: 110000000 cycles: 44059511 heartbeat IPC: 2.47621 cumulative IPC: 2.48805 (Simulation time: 0 hr 8 min 15 sec) 
Heartbeat CPU 0 instructions: 120000000 cycles: 48121166 heartbeat IPC: 2.46205 cumulative IPC: 2.48584 (Simulation time: 0 hr 9 min 0 sec) 
Heartbeat CPU 0 instructions: 130000003 cycles: 52181843 heartbeat IPC: 2.46264 cumulative IPC: 2.48403 (Simulation time: 0 hr 9 min 47 sec) 
Heartbeat CPU 0 instructions: 140000001 cycles: 56261581 heartbeat IPC: 2.45114 cumulative IPC: 2.48163 (Simulation time: 0 hr 10 min 33 sec) 
Heartbeat CPU 0 instructions: 150000000 cycles: 60362595 heartbeat IPC: 2.43842 cumulative IPC: 2.47868 (Simulation time: 0 hr 11 min 21 sec) 
Heartbeat CPU 0 instructions: 160000004 cycles: 64501676 heartbeat IPC: 2.416 cumulative IPC: 2.47465 (Simulation time: 0 hr 12 min 8 sec) 
Heartbeat CPU 0 instructions: 170000002 cycles: 68661813 heartbeat IPC: 2.40377 cumulative IPC: 2.47034 (Simulation time: 0 hr 12 min 56 sec) 
Heartbeat CPU 0 instructions: 180000003 cycles: 72813463 heartbeat IPC: 2.40868 cumulative IPC: 2.46681 (Simulation time: 0 hr 13 min 42 sec) 
Heartbeat CPU 0 instructions: 190000003 cycles: 76962824 heartbeat IPC: 2.41001 cumulative IPC: 2.46374 (Simulation time: 0 hr 14 min 29 sec) 
Heartbeat CPU 0 instructions: 200000003 cycles: 81099085 heartbeat IPC: 2.41764 cumulative IPC: 2.46138 (Simulation time: 0 hr 15 min 16 sec) 
Heartbeat CPU 0 instructions: 210000000 cycles: 85270240 heartbeat IPC: 2.39742 cumulative IPC: 2.45824 (Simulation time: 0 hr 16 min 3 sec) 
Heartbeat CPU 0 instructions: 220000000 cycles: 89444677 heartbeat IPC: 2.39553 cumulative IPC: 2.45531 (Simulation time: 0 hr 16 min 50 sec) 
Heartbeat CPU 0 instructions: 230000004 cycles: 93608850 heartbeat IPC: 2.40144 cumulative IPC: 2.4529 (Simulation time: 0 hr 17 min 38 sec) 
Heartbeat CPU 0 instructions: 240000004 cycles: 97776522 heartbeat IPC: 2.39942 cumulative IPC: 2.45062 (Simulation time: 0 hr 18 min 25 sec) 
Heartbeat CPU 0 instructions: 250000000 cycles: 101950946 heartbeat IPC: 2.39554 cumulative IPC: 2.44836 (Simulation time: 0 hr 19 min 12 sec) 
Heartbeat CPU 0 instructions: 260000002 cycles: 106099011 heartbeat IPC: 2.41076 cumulative IPC: 2.44688 (Simulation time: 0 hr 19 min 58 sec) 
Heartbeat CPU 0 instructions: 270000004 cycles: 110234501 heartbeat IPC: 2.41809 cumulative IPC: 2.4458 (Simulation time: 0 hr 20 min 45 sec) 
Heartbeat CPU 0 instructions: 280000001 cycles: 114369101 heartbeat IPC: 2.41861 cumulative IPC: 2.44482 (Simulation time: 0 hr 21 min 30 sec) 
Heartbeat CPU 0 instructions: 290000000 cycles: 118531089 heartbeat IPC: 2.4027 cumulative IPC: 2.44333 (Simulation time: 0 hr 22 min 17 sec) 
Heartbeat CPU 0 instructions: 300000002 cycles: 122718966 heartbeat IPC: 2.38785 cumulative IPC: 2.44144 (Simulation time: 0 hr 23 min 3 sec) 
Heartbeat CPU 0 instructions: 310000000 cycles: 126889349 heartbeat IPC: 2.39786 cumulative IPC: 2.44 (Simulation time: 0 hr 23 min 50 sec) 
Heartbeat CPU 0 instructions: 320000003 cycles: 131030849 heartbeat IPC: 2.41458 cumulative IPC: 2.4392 (Simulation time: 0 hr 24 min 37 sec) 
Heartbeat CPU 0 instructions: 330000002 cycles: 135152182 heartbeat IPC: 2.4264 cumulative IPC: 2.43881 (Simulation time: 0 hr 25 min 25 sec) 
Heartbeat CPU 0 instructions: 340000002 cycles: 139258247 heartbeat IPC: 2.43542 cumulative IPC: 2.43871 (Simulation time: 0 hr 26 min 12 sec) 
Heartbeat CPU 0 instructions: 350000003 cycles: 143364086 heartbeat IPC: 2.43556 cumulative IPC: 2.43862 (Simulation time: 0 hr 26 min 59 sec) 
Heartbeat CPU 0 instructions: 360000000 cycles: 147467924 heartbeat IPC: 2.43674 cumulative IPC: 2.43856 (Simulation time: 0 hr 27 min 47 sec) 
Heartbeat CPU 0 instructions: 370000003 cycles: 151561555 heartbeat IPC: 2.44282 cumulative IPC: 2.43868 (Simulation time: 0 hr 28 min 33 sec) 
Heartbeat CPU 0 instructions: 380000004 cycles: 155650782 heartbeat IPC: 2.44545 cumulative IPC: 2.43886 (Simulation time: 0 hr 29 min 20 sec) 
Heartbeat CPU 0 instructions: 390000003 cycles: 159719810 heartbeat IPC: 2.45759 cumulative IPC: 2.43933 (Simulation time: 0 hr 30 min 6 sec) 
Heartbeat CPU 0 instructions: 400000002 cycles: 163779305 heartbeat IPC: 2.46336 cumulative IPC: 2.43993 (Simulation time: 0 hr 30 min 53 sec) 
Heartbeat CPU 0 instructions: 410000000 cycles: 167848045 heartbeat IPC: 2.45776 cumulative IPC: 2.44036 (Simulation time: 0 hr 31 min 38 sec) 
Heartbeat CPU 0 instructions: 420000003 cycles: 171924440 heartbeat IPC: 2.45315 cumulative IPC: 2.44067 (Simulation time: 0 hr 32 min 25 sec) 
Heartbeat CPU 0 instructions: 430000003 cycles: 176005554 heartbeat IPC: 2.45031 cumulative IPC: 2.44089 (Simulation time: 0 hr 33 min 13 sec) 
Heartbeat CPU 0 instructions: 440000003 cycles: 180069151 heartbeat IPC: 2.46087 cumulative IPC: 2.44134 (Simulation time: 0 hr 34 min 1 sec) 
Heartbeat CPU 0 instructions: 450000004 cycles: 184120599 heartbeat IPC: 2.46825 cumulative IPC: 2.44194 (Simulation time: 0 hr 34 min 49 sec) 
Heartbeat CPU 0 instructions: 460000001 cycles: 188203406 heartbeat IPC: 2.44929 cumulative IPC: 2.4421 (Simulation time: 0 hr 35 min 35 sec) 
Heartbeat CPU 0 instructions: 470000001 cycles: 192269083 heartbeat IPC: 2.45961 cumulative IPC: 2.44247 (Simulation time: 0 hr 36 min 22 sec) 
Heartbeat CPU 0 instructions: 480000001 cycles: 196304453 heartbeat IPC: 2.47809 cumulative IPC: 2.4432 (Simulation time: 0 hr 37 min 8 sec) 
Heartbeat CPU 0 instructions: 490000004 cycles: 200323971 heartbeat IPC: 2.48786 cumulative IPC: 2.4441 (Simulation time: 0 hr 37 min 55 sec) 
Heartbeat CPU 0 instructions: 500000000 cycles: 204351168 heartbeat IPC: 2.48312 cumulative IPC: 2.44487 (Simulation time: 0 hr 38 min 40 sec) 
Heartbeat CPU 0 instructions: 510000002 cycles: 208415289 heartbeat IPC: 2.46056 cumulative IPC: 2.44517 (Simulation time: 0 hr 39 min 26 sec) 
Heartbeat CPU 0 instructions: 520000000 cycles: 212504929 heartbeat IPC: 2.4452 cumulative IPC: 2.44517 (Simulation time: 0 hr 40 min 13 sec) 
Heartbeat CPU 0 instructions: 530000001 cycles: 216590652 heartbeat IPC: 2.44755 cumulative IPC: 2.44522 (Simulation time: 0 hr 41 min 0 sec) 
Heartbeat CPU 0 instructions: 540000003 cycles: 220697661 heartbeat IPC: 2.43486 cumulative IPC: 2.44503 (Simulation time: 0 hr 41 min 48 sec) 
Heartbeat CPU 0 instructions: 550000002 cycles: 224808866 heartbeat IPC: 2.43238 cumulative IPC: 2.44479 (Simulation time: 0 hr 42 min 34 sec) 
Heartbeat CPU 0 instructions: 560000002 cycles: 228916248 heartbeat IPC: 2.43464 cumulative IPC: 2.44461 (Simulation time: 0 hr 43 min 22 sec) 
Heartbeat CPU 0 instructions: 570000004 cycles: 233027048 heartbeat IPC: 2.43262 cumulative IPC: 2.4444 (Simulation time: 0 hr 44 min 8 sec) 
Heartbeat CPU 0 instructions: 580000001 cycles: 237134162 heartbeat IPC: 2.4348 cumulative IPC: 2.44423 (Simulation time: 0 hr 44 min 53 sec) 
Heartbeat CPU 0 instructions: 590000001 cycles: 241256484 heartbeat IPC: 2.42582 cumulative IPC: 2.44392 (Simulation time: 0 hr 45 min 39 sec) 
Heartbeat CPU 0 instructions: 600000002 cycles: 245366663 heartbeat IPC: 2.43298 cumulative IPC: 2.44373 (Simulation time: 0 hr 46 min 25 sec) 
Heartbeat CPU 0 instructions: 610000001 cycles: 249459906 heartbeat IPC: 2.44305 cumulative IPC: 2.44372 (Simulation time: 0 hr 47 min 12 sec) 
Heartbeat CPU 0 instructions: 620000001 cycles: 253521380 heartbeat IPC: 2.46216 cumulative IPC: 2.44402 (Simulation time: 0 hr 47 min 57 sec) 
Heartbeat CPU 0 instructions: 630000001 cycles: 257556010 heartbeat IPC: 2.47854 cumulative IPC: 2.44456 (Simulation time: 0 hr 48 min 43 sec) 
Heartbeat CPU 0 instructions: 640000000 cycles: 261585635 heartbeat IPC: 2.48162 cumulative IPC: 2.44513 (Simulation time: 0 hr 49 min 28 sec) 
Heartbeat CPU 0 instructions: 650000000 cycles: 265615003 heartbeat IPC: 2.48178 cumulative IPC: 2.44569 (Simulation time: 0 hr 50 min 13 sec) 
Heartbeat CPU 0 instructions: 660000003 cycles: 269626155 heartbeat IPC: 2.49305 cumulative IPC: 2.44639 (Simulation time: 0 hr 50 min 59 sec) 
Heartbeat CPU 0 instructions: 670000003 cycles: 273660161 heartbeat IPC: 2.47893 cumulative IPC: 2.44687 (Simulation time: 0 hr 51 min 46 sec) 
Heartbeat CPU 0 instructions: 680000001 cycles: 277685265 heartbeat IPC: 2.48441 cumulative IPC: 2.44742 (Simulation time: 0 hr 52 min 32 sec) 
Heartbeat CPU 0 instructions: 690000000 cycles: 281768370 heartbeat IPC: 2.44912 cumulative IPC: 2.44744 (Simulation time: 0 hr 53 min 19 sec) 
Heartbeat CPU 0 instructions: 700000004 cycles: 285849880 heartbeat IPC: 2.45007 cumulative IPC: 2.44748 (Simulation time: 0 hr 54 min 6 sec) 
Heartbeat CPU 0 instructions: 710000000 cycles: 289912403 heartbeat IPC: 2.46152 cumulative IPC: 2.44768 (Simulation time: 0 hr 54 min 53 sec) 
Heartbeat CPU 0 instructions: 720000001 cycles: 293971826 heartbeat IPC: 2.4634 cumulative IPC: 2.44789 (Simulation time: 0 hr 55 min 40 sec) 
Heartbeat CPU 0 instructions: 730000001 cycles: 298017767 heartbeat IPC: 2.47161 cumulative IPC: 2.44822 (Simulation time: 0 hr 56 min 25 sec) 
Heartbeat CPU 0 instructions: 740000000 cycles: 302055566 heartbeat IPC: 2.4766 cumulative IPC: 2.4486 (Simulation time: 0 hr 57 min 12 sec) 
Heartbeat CPU 0 instructions: 750000004 cycles: 306099403 heartbeat IPC: 2.4729 cumulative IPC: 2.44892 (Simulation time: 0 hr 57 min 58 sec) 
Heartbeat CPU 0 instructions: 760000003 cycles: 310154993 heartbeat IPC: 2.46573 cumulative IPC: 2.44914 (Simulation time: 0 hr 58 min 46 sec) 
Heartbeat CPU 0 instructions: 770000003 cycles: 314173917 heartbeat IPC: 2.48823 cumulative IPC: 2.44964 (Simulation time: 0 hr 59 min 32 sec) 
Heartbeat CPU 0 instructions: 780000002 cycles: 318197044 heartbeat IPC: 2.48563 cumulative IPC: 2.45009 (Simulation time: 1 hr 0 min 18 sec) 
Heartbeat CPU 0 instructions: 790000003 cycles: 322242447 heartbeat IPC: 2.47194 cumulative IPC: 2.45037 (Simulation time: 1 hr 1 min 4 sec) 
Heartbeat CPU 0 instructions: 800000001 cycles: 326289803 heartbeat IPC: 2.47075 cumulative IPC: 2.45062 (Simulation time: 1 hr 1 min 50 sec) 
Heartbeat CPU 0 instructions: 810000000 cycles: 330345328 heartbeat IPC: 2.46577 cumulative IPC: 2.45081 (Simulation time: 1 hr 2 min 36 sec) 
Heartbeat CPU 0 instructions: 820000000 cycles: 334388453 heartbeat IPC: 2.47333 cumulative IPC: 2.45108 (Simulation time: 1 hr 3 min 21 sec) 
Heartbeat CPU 0 instructions: 830000000 cycles: 338441668 heartbeat IPC: 2.46718 cumulative IPC: 2.45127 (Simulation time: 1 hr 4 min 7 sec) 
Heartbeat CPU 0 instructions: 840000000 cycles: 342511518 heartbeat IPC: 2.45709 cumulative IPC: 2.45134 (Simulation time: 1 hr 4 min 53 sec) 
Heartbeat CPU 0 instructions: 850000004 cycles: 346578447 heartbeat IPC: 2.45886 cumulative IPC: 2.45143 (Simulation time: 1 hr 5 min 38 sec) 
Heartbeat CPU 0 instructions: 860000000 cycles: 350646489 heartbeat IPC: 2.45818 cumulative IPC: 2.45151 (Simulation time: 1 hr 6 min 23 sec) 
Heartbeat CPU 0 instructions: 870000003 cycles: 354695396 heartbeat IPC: 2.4698 cumulative IPC: 2.45172 (Simulation time: 1 hr 7 min 7 sec) 
Heartbeat CPU 0 instructions: 880000003 cycles: 358768461 heartbeat IPC: 2.45515 cumulative IPC: 2.45176 (Simulation time: 1 hr 7 min 51 sec) 
Heartbeat CPU 0 instructions: 890000002 cycles: 362839918 heartbeat IPC: 2.45612 cumulative IPC: 2.45181 (Simulation time: 1 hr 8 min 36 sec) 
Heartbeat CPU 0 instructions: 900000001 cycles: 366920325 heartbeat IPC: 2.45074 cumulative IPC: 2.45179 (Simulation time: 1 hr 9 min 21 sec) 
Heartbeat CPU 0 instructions: 910000002 cycles: 370993149 heartbeat IPC: 2.4553 cumulative IPC: 2.45183 (Simulation time: 1 hr 10 min 4 sec) 
Heartbeat CPU 0 instructions: 920000004 cycles: 375062317 heartbeat IPC: 2.45751 cumulative IPC: 2.45189 (Simulation time: 1 hr 10 min 49 sec) 
Heartbeat CPU 0 instructions: 930000000 cycles: 379138726 heartbeat IPC: 2.45314 cumulative IPC: 2.45191 (Simulation time: 1 hr 11 min 32 sec) 
Heartbeat CPU 0 instructions: 940000003 cycles: 383215560 heartbeat IPC: 2.45288 cumulative IPC: 2.45192 (Simulation time: 1 hr 12 min 14 sec) 
Heartbeat CPU 0 instructions: 950000004 cycles: 387283299 heartbeat IPC: 2.45837 cumulative IPC: 2.45199 (Simulation time: 1 hr 12 min 58 sec) 
Heartbeat CPU 0 instructions: 960000001 cycles: 391337621 heartbeat IPC: 2.4665 cumulative IPC: 2.45214 (Simulation time: 1 hr 13 min 40 sec) 
Heartbeat CPU 0 instructions: 970000000 cycles: 395396895 heartbeat IPC: 2.46349 cumulative IPC: 2.45225 (Simulation time: 1 hr 14 min 22 sec) 
Heartbeat CPU 0 instructions: 980000004 cycles: 399472998 heartbeat IPC: 2.45332 cumulative IPC: 2.45226 (Simulation time: 1 hr 15 min 4 sec) 
Heartbeat CPU 0 instructions: 990000002 cycles: 403566952 heartbeat IPC: 2.44263 cumulative IPC: 2.45217 (Simulation time: 1 hr 15 min 46 sec) 
Heartbeat CPU 0 instructions: 1000000001 cycles: 407652923 heartbeat IPC: 2.4474 cumulative IPC: 2.45212 (Simulation time: 1 hr 16 min 28 sec) 
Finished CPU 0 instructions: 1000000000 cycles: 407812408 cumulative IPC: 2.45211 (Simulation time: 1 hr 16 min 32 sec) 

ChampSim completed all CPUs

Region of Interest Statistics

CPU 0 cumulative IPC: 2.45211 instructions: 1000000000 cycles: 407812408
cpu0_DTLB TOTAL     ACCESS:   82617451  HIT:   82153335  MISS:     464116
cpu0_DTLB LOAD      ACCESS:   82594525  HIT:   82135984  MISS:     458541
cpu0_DTLB RFO       ACCESS:      22926  HIT:      17351  MISS:       5575
cpu0_DTLB PREFETCH  ACCESS:          0  HIT:          0  MISS:          0
cpu0_DTLB WRITEBACK ACCESS:          0  HIT:          0  MISS:          0
cpu0_DTLB TRANSLATION ACCESS:          0  HIT:          0  MISS:          0
cpu0_DTLB PREFETCH  REQUESTED:          0  ISSUED:          0  USEFUL:          0  USELESS:          0
cpu0_DTLB AVERAGE MISS LATENCY: 9.31181 cycles
cpu0_ITLB TOTAL     ACCESS:    9107220  HIT:    9107220  MISS:          0
cpu0_ITLB LOAD      ACCESS:    9107220  HIT:    9107220  MISS:          0
cpu0_ITLB RFO       ACCESS:          0  HIT:          0  MISS:          0
cpu0_ITLB PREFETCH  ACCESS:          0  HIT:          0  MISS:          0
cpu0_ITLB WRITEBACK ACCESS:          0  HIT:          0  MISS:          0
cpu0_ITLB TRANSLATION ACCESS:          0  HIT:          0  MISS:          0
cpu0_ITLB PREFETCH  REQUESTED:          0  ISSUED:          0  USEFUL:          0  USELESS:          0
cpu0_ITLB AVERAGE MISS LATENCY: -nan cycles
cpu0_L1I TOTAL     ACCESS:          2  HIT:          2  MISS:          0
cpu0_L1I LOAD      ACCESS:          2  HIT:          2  MISS:          0
cpu0_L1I RFO       ACCESS:          0  HIT:          0  MISS:          0
cpu0_L1I PREFETCH  ACCESS:          0  HIT:          0  MISS:          0
cpu0_L1I WRITEBACK ACCESS:          0  HIT:          0  MISS:          0
cpu0_L1I TRANSLATION ACCESS:          0  HIT:          0  MISS:          0
cpu0_L1I PREFETCH  REQUESTED:          0  ISSUED:          0  USEFUL:          0  USELESS:          0
cpu0_L1I AVERAGE MISS LATENCY: -nan cycles
cpu0_STLB TOTAL     ACCESS:     464116  HIT:     463505  MISS:        611
cpu0_STLB LOAD      ACCESS:     458541  HIT:     457936  MISS:        605
cpu0_STLB RFO       ACCESS:       5575  HIT:       5569  MISS:          6
cpu0_STLB PREFETCH  ACCESS:          0  HIT:          0  MISS:          0
cpu0_STLB WRITEBACK ACCESS:          0  HIT:          0  MISS:          0
cpu0_STLB TRANSLATION ACCESS:          0  HIT:          0  MISS:          0
cpu0_STLB PREFETCH  REQUESTED:          0  ISSUED:          0  USEFUL:          0  USELESS:          0
cpu0_STLB AVERAGE MISS LATENCY: 227.033 cycles
cpu0_L1D TOTAL     ACCESS:  103457194  HIT:   94095297  MISS:    9361897
cpu0_L1D LOAD      ACCESS:   53557550  HIT:   48739701  MISS:    4817849
cpu0_L1D RFO       ACCESS:      41628  HIT:      35711  MISS:       5917
cpu0_L1D PREFETCH  ACCESS:   49857405  HIT:   45319885  MISS:    4537520
cpu0_L1D WRITEBACK ACCESS:          0  HIT:          0  MISS:          0
cpu0_L1D TRANSLATION ACCESS:        611  HIT:          0  MISS:        611
cpu0_L1D PREFETCH  REQUESTED:   58851179  ISSUED:   58807684  USEFUL:    4521870  USELESS:     134224
cpu0_L1D AVERAGE MISS LATENCY: 26.6801 cycles
cpu0_L2C TOTAL     ACCESS:   31705462  HIT:   26735850  MISS:    4969612
cpu0_L2C LOAD      ACCESS:    4699285  HIT:    2422923  MISS:    2276362
cpu0_L2C RFO       ACCESS:       5904  HIT:       2926  MISS:       2978
cpu0_L2C PREFETCH  ACCESS:   26988167  HIT:   24298043  MISS:    2690124
cpu0_L2C WRITEBACK ACCESS:      11495  HIT:      11495  MISS:          0
cpu0_L2C TRANSLATION ACCESS:        611  HIT:        463  MISS:        148
cpu0_L2C PREFETCH  REQUESTED:   22332194  ISSUED:   22332194  USEFUL:     518643  USELESS:      40255
cpu0_L2C AVERAGE MISS LATENCY: 29.6148 cycles
LLC TOTAL     ACCESS:    4977318  HIT:    4934604  MISS:      42714
LLC LOAD      ACCESS:    2276361  HIT:    2275236  MISS:       1125
LLC RFO       ACCESS:       2974  HIT:       2702  MISS:        272
LLC PREFETCH  ACCESS:    2690124  HIT:    2648810  MISS:      41314
LLC WRITEBACK ACCESS:       7711  HIT:       7709  MISS:          2
LLC TRANSLATION ACCESS:        148  HIT:        147  MISS:          1
LLC PREFETCH  REQUESTED:          0  ISSUED:          0  USEFUL:          0  USELESS:          0
LLC AVERAGE MISS LATENCY: 304.209 cycles

DRAM Statistics
 CHANNEL 0
 RQ ROW_BUFFER_HIT:          1  ROW_BUFFER_MISS:      42711
 DBUS AVG_CONGESTED_CYCLE:     3.7869
 WQ ROW_BUFFER_HIT:          0  ROW_BUFFER_MISS:        154  FULL:          0


CPU 0 Branch Prediction Accuracy: 99.3959% MPKI: 0.625206 Average ROB Occupancy at Mispredict: 76.041
Branch type MPKI
BRANCH_DIRECT_JUMP: 3e-06
BRANCH_INDIRECT: 0
BRANCH_CONDITIONAL: 0.625203
BRANCH_DIRECT_CALL: 0
BRANCH_INDIRECT_CALL: 0
BRANCH_RETURN: 0

