
*** ChampSim Multicore Out-of-Order Simulator ***

Warmup Instructions: 1000000
Simulation Instructions: 1000000000
Number of CPUs: 1
Off-chip DRAM Size: 4 GiB Channels: 1 Width: 64-bit Data Rate: 3200 MT/s

VirtualMemory physical capacity: 8588881920 num_ppages: 2096895
VirtualMemory page size: 4096 log2_page_size: 12

CPU 0 runs tracer/pin/traces/spec2k6/416.gamess-875B.champsimtrace.xz
Basic BTB sets: 1024 ways: 8 indirect buffer size: 4096 RAS size: 64
cpu0_L1D next line prefetcher
cpu0_L2C IP-based stride prefetcher
WARNING: The extended signature CACHE::prefetch_line(ip, base_addr, pf_addr, fill_this_level, prefetch_metadata) is deprecated.
WARNING: Use CACHE::prefetch_line(pf_addr, fill_this_level, prefetch_metadata) instead.

Warmup complete CPU 0 instructions: 1000001 cycles: 272802 (Simulation time: 0 hr 0 min 3 sec) 

Heartbeat CPU 0 instructions: 10000001 cycles: 6718024 heartbeat IPC: 1.48853 cumulative IPC: 1.39638 (Simulation time: 0 hr 0 min 40 sec) 
Heartbeat CPU 0 instructions: 20000001 cycles: 13147364 heartbeat IPC: 1.55537 cumulative IPC: 1.47578 (Simulation time: 0 hr 1 min 24 sec) 
Heartbeat CPU 0 instructions: 30000001 cycles: 19721914 heartbeat IPC: 1.52102 cumulative IPC: 1.49107 (Simulation time: 0 hr 2 min 8 sec) 
Heartbeat CPU 0 instructions: 40000004 cycles: 25740767 heartbeat IPC: 1.66145 cumulative IPC: 1.53134 (Simulation time: 0 hr 2 min 53 sec) 
Heartbeat CPU 0 instructions: 50000001 cycles: 31577795 heartbeat IPC: 1.7132 cumulative IPC: 1.56525 (Simulation time: 0 hr 3 min 41 sec) 
Heartbeat CPU 0 instructions: 60000004 cycles: 38237162 heartbeat IPC: 1.50164 cumulative IPC: 1.55409 (Simulation time: 0 hr 4 min 36 sec) 
Heartbeat CPU 0 instructions: 70000000 cycles: 45326101 heartbeat IPC: 1.41065 cumulative IPC: 1.53152 (Simulation time: 0 hr 5 min 29 sec) 
Heartbeat CPU 0 instructions: 80000001 cycles: 52488537 heartbeat IPC: 1.39617 cumulative IPC: 1.51295 (Simulation time: 0 hr 6 min 21 sec) 
Heartbeat CPU 0 instructions: 90000003 cycles: 58965177 heartbeat IPC: 1.54401 cumulative IPC: 1.51638 (Simulation time: 0 hr 7 min 7 sec) 
Heartbeat CPU 0 instructions: 100000001 cycles: 64951335 heartbeat IPC: 1.67052 cumulative IPC: 1.53065 (Simulation time: 0 hr 7 min 55 sec) 
Heartbeat CPU 0 instructions: 110000003 cycles: 71532347 heartbeat IPC: 1.51952 cumulative IPC: 1.52962 (Simulation time: 0 hr 8 min 44 sec) 
Heartbeat CPU 0 instructions: 120000003 cycles: 78029704 heartbeat IPC: 1.53909 cumulative IPC: 1.53041 (Simulation time: 0 hr 9 min 30 sec) 
Heartbeat CPU 0 instructions: 130000002 cycles: 84582267 heartbeat IPC: 1.52612 cumulative IPC: 1.53008 (Simulation time: 0 hr 10 min 18 sec) 
Heartbeat CPU 0 instructions: 140000000 cycles: 90580602 heartbeat IPC: 1.66713 cumulative IPC: 1.53918 (Simulation time: 0 hr 11 min 8 sec) 
Heartbeat CPU 0 instructions: 150000002 cycles: 96361069 heartbeat IPC: 1.72996 cumulative IPC: 1.55066 (Simulation time: 0 hr 12 min 3 sec) 
Heartbeat CPU 0 instructions: 160000004 cycles: 102387050 heartbeat IPC: 1.65948 cumulative IPC: 1.55708 (Simulation time: 0 hr 13 min 2 sec) 
Heartbeat CPU 0 instructions: 170000003 cycles: 108541765 heartbeat IPC: 1.62477 cumulative IPC: 1.56093 (Simulation time: 0 hr 13 min 57 sec) 
Heartbeat CPU 0 instructions: 180000003 cycles: 115506776 heartbeat IPC: 1.43575 cumulative IPC: 1.55336 (Simulation time: 0 hr 14 min 53 sec) 
Heartbeat CPU 0 instructions: 190000001 cycles: 122698125 heartbeat IPC: 1.39056 cumulative IPC: 1.5438 (Simulation time: 0 hr 15 min 55 sec) 
Heartbeat CPU 0 instructions: 200000000 cycles: 129897850 heartbeat IPC: 1.38894 cumulative IPC: 1.5352 (Simulation time: 0 hr 16 min 55 sec) 
Heartbeat CPU 0 instructions: 210000001 cycles: 136443525 heartbeat IPC: 1.52773 cumulative IPC: 1.53484 (Simulation time: 0 hr 17 min 58 sec) 
Heartbeat CPU 0 instructions: 220000001 cycles: 142515395 heartbeat IPC: 1.64694 cumulative IPC: 1.53962 (Simulation time: 0 hr 18 min 59 sec) 
Heartbeat CPU 0 instructions: 230000001 cycles: 148599552 heartbeat IPC: 1.64361 cumulative IPC: 1.54389 (Simulation time: 0 hr 19 min 57 sec) 
Heartbeat CPU 0 instructions: 240000001 cycles: 154875734 heartbeat IPC: 1.59333 cumulative IPC: 1.5459 (Simulation time: 0 hr 20 min 57 sec) 
Heartbeat CPU 0 instructions: 250000003 cycles: 161445289 heartbeat IPC: 1.52217 cumulative IPC: 1.54493 (Simulation time: 0 hr 22 min 1 sec) 
Heartbeat CPU 0 instructions: 260000003 cycles: 167853363 heartbeat IPC: 1.56053 cumulative IPC: 1.54553 (Simulation time: 0 hr 23 min 5 sec) 
Heartbeat CPU 0 instructions: 270000003 cycles: 174418084 heartbeat IPC: 1.52329 cumulative IPC: 1.54469 (Simulation time: 0 hr 24 min 12 sec) 
Heartbeat CPU 0 instructions: 280000000 cycles: 180966902 heartbeat IPC: 1.52699 cumulative IPC: 1.54405 (Simulation time: 0 hr 25 min 18 sec) 
Heartbeat CPU 0 instructions: 290000002 cycles: 187473853 heartbeat IPC: 1.53682 cumulative IPC: 1.54379 (Simulation time: 0 hr 26 min 28 sec) 
Heartbeat CPU 0 instructions: 300000001 cycles: 193658003 heartbeat IPC: 1.61704 cumulative IPC: 1.54614 (Simulation time: 0 hr 27 min 32 sec) 
Heartbeat CPU 0 instructions: 310000000 cycles: 199476487 heartbeat IPC: 1.71866 cumulative IPC: 1.55118 (Simulation time: 0 hr 28 min 34 sec) 
Heartbeat CPU 0 instructions: 320000001 cycles: 205442145 heartbeat IPC: 1.67626 cumulative IPC: 1.55481 (Simulation time: 0 hr 29 min 39 sec) 
Heartbeat CPU 0 instructions: 330000000 cycles: 211128901 heartbeat IPC: 1.75847 cumulative IPC: 1.56031 (Simulation time: 0 hr 30 min 40 sec) 
Heartbeat CPU 0 instructions: 340000001 cycles: 217068809 heartbeat IPC: 1.68353 cumulative IPC: 1.56368 (Simulation time: 0 hr 31 min 42 sec) 
Heartbeat CPU 0 instructions: 350000001 cycles: 222858418 heartbeat IPC: 1.72723 cumulative IPC: 1.56794 (Simulation time: 0 hr 32 min 42 sec) 
Heartbeat CPU 0 instructions: 360000004 cycles: 229572307 heartbeat IPC: 1.48945 cumulative IPC: 1.56564 (Simulation time: 0 hr 33 min 41 sec) 
Heartbeat CPU 0 instructions: 370000002 cycles: 236600886 heartbeat IPC: 1.42276 cumulative IPC: 1.56139 (Simulation time: 0 hr 34 min 43 sec) 
Heartbeat CPU 0 instructions: 380000002 cycles: 243755595 heartbeat IPC: 1.39768 cumulative IPC: 1.55658 (Simulation time: 0 hr 35 min 50 sec) 
Heartbeat CPU 0 instructions: 390000001 cycles: 251013771 heartbeat IPC: 1.37776 cumulative IPC: 1.5514 (Simulation time: 0 hr 36 min 57 sec) 
Heartbeat CPU 0 instructions: 400000001 cycles: 257501686 heartbeat IPC: 1.54133 cumulative IPC: 1.55115 (Simulation time: 0 hr 38 min 1 sec) 
Heartbeat CPU 0 instructions: 410000003 cycles: 263514973 heartbeat IPC: 1.66298 cumulative IPC: 1.5537 (Simulation time: 0 hr 39 min 1 sec) 
Heartbeat CPU 0 instructions: 420000003 cycles: 269381237 heartbeat IPC: 1.70466 cumulative IPC: 1.55699 (Simulation time: 0 hr 40 min 2 sec) 
Heartbeat CPU 0 instructions: 430000000 cycles: 275745475 heartbeat IPC: 1.57128 cumulative IPC: 1.55732 (Simulation time: 0 hr 41 min 6 sec) 
Heartbeat CPU 0 instructions: 440000000 cycles: 282280470 heartbeat IPC: 1.53022 cumulative IPC: 1.5567 (Simulation time: 0 hr 42 min 8 sec) 
Heartbeat CPU 0 instructions: 450000004 cycles: 288753231 heartbeat IPC: 1.54494 cumulative IPC: 1.55643 (Simulation time: 0 hr 43 min 9 sec) 
Heartbeat CPU 0 instructions: 460000000 cycles: 295191326 heartbeat IPC: 1.55325 cumulative IPC: 1.55636 (Simulation time: 0 hr 44 min 11 sec) 
Heartbeat CPU 0 instructions: 470000003 cycles: 301597944 heartbeat IPC: 1.56089 cumulative IPC: 1.55646 (Simulation time: 0 hr 45 min 15 sec) 
Heartbeat CPU 0 instructions: 480000000 cycles: 307951180 heartbeat IPC: 1.574 cumulative IPC: 1.55682 (Simulation time: 0 hr 46 min 19 sec) 
Heartbeat CPU 0 instructions: 490000003 cycles: 313745682 heartbeat IPC: 1.72577 cumulative IPC: 1.55994 (Simulation time: 0 hr 47 min 25 sec) 
Heartbeat CPU 0 instructions: 500000002 cycles: 319562230 heartbeat IPC: 1.71923 cumulative IPC: 1.56285 (Simulation time: 0 hr 48 min 27 sec) 
Heartbeat CPU 0 instructions: 510000001 cycles: 325333758 heartbeat IPC: 1.73264 cumulative IPC: 1.56586 (Simulation time: 0 hr 49 min 32 sec) 
Heartbeat CPU 0 instructions: 520000001 cycles: 331819956 heartbeat IPC: 1.54174 cumulative IPC: 1.56539 (Simulation time: 0 hr 50 min 35 sec) 
Heartbeat CPU 0 instructions: 530000004 cycles: 338899931 heartbeat IPC: 1.41243 cumulative IPC: 1.56219 (Simulation time: 0 hr 51 min 37 sec) 
Heartbeat CPU 0 instructions: 540000001 cycles: 346017995 heartbeat IPC: 1.40488 cumulative IPC: 1.55895 (Simulation time: 0 hr 52 min 40 sec) 
Heartbeat CPU 0 instructions: 550000003 cycles: 353204024 heartbeat IPC: 1.39159 cumulative IPC: 1.55554 (Simulation time: 0 hr 53 min 48 sec) 
Heartbeat CPU 0 instructions: 560000001 cycles: 360376979 heartbeat IPC: 1.39413 cumulative IPC: 1.55233 (Simulation time: 0 hr 54 min 58 sec) 
Heartbeat CPU 0 instructions: 570000002 cycles: 366586809 heartbeat IPC: 1.61035 cumulative IPC: 1.55331 (Simulation time: 0 hr 56 min 0 sec) 
Heartbeat CPU 0 instructions: 580000000 cycles: 372567023 heartbeat IPC: 1.67218 cumulative IPC: 1.55522 (Simulation time: 0 hr 56 min 59 sec) 
Heartbeat CPU 0 instructions: 590000003 cycles: 379003151 heartbeat IPC: 1.55373 cumulative IPC: 1.5552 (Simulation time: 0 hr 58 min 0 sec) 
Heartbeat CPU 0 instructions: 600000001 cycles: 385506982 heartbeat IPC: 1.53755 cumulative IPC: 1.5549 (Simulation time: 0 hr 59 min 4 sec) 
Heartbeat CPU 0 instructions: 610000002 cycles: 391909026 heartbeat IPC: 1.562 cumulative IPC: 1.55501 (Simulation time: 1 hr 0 min 11 sec) 
Heartbeat CPU 0 instructions: 620000001 cycles: 398463318 heartbeat IPC: 1.52572 cumulative IPC: 1.55453 (Simulation time: 1 hr 1 min 16 sec) 
Heartbeat CPU 0 instructions: 630000002 cycles: 404845759 heartbeat IPC: 1.5668 cumulative IPC: 1.55473 (Simulation time: 1 hr 2 min 18 sec) 
Heartbeat CPU 0 instructions: 640000001 cycles: 411252591 heartbeat IPC: 1.56083 cumulative IPC: 1.55482 (Simulation time: 1 hr 3 min 17 sec) 
Heartbeat CPU 0 instructions: 650000003 cycles: 417758017 heartbeat IPC: 1.53718 cumulative IPC: 1.55455 (Simulation time: 1 hr 4 min 15 sec) 
Heartbeat CPU 0 instructions: 660000003 cycles: 423935177 heartbeat IPC: 1.61887 cumulative IPC: 1.55548 (Simulation time: 1 hr 5 min 10 sec) 
Heartbeat CPU 0 instructions: 670000003 cycles: 429916946 heartbeat IPC: 1.67175 cumulative IPC: 1.5571 (Simulation time: 1 hr 6 min 6 sec) 
Heartbeat CPU 0 instructions: 680000000 cycles: 435703645 heartbeat IPC: 1.7281 cumulative IPC: 1.55938 (Simulation time: 1 hr 7 min 0 sec) 
Heartbeat CPU 0 instructions: 690000001 cycles: 441593207 heartbeat IPC: 1.69792 cumulative IPC: 1.56122 (Simulation time: 1 hr 7 min 54 sec) 
Heartbeat CPU 0 instructions: 700000001 cycles: 447573267 heartbeat IPC: 1.67222 cumulative IPC: 1.56271 (Simulation time: 1 hr 8 min 48 sec) 
Heartbeat CPU 0 instructions: 710000001 cycles: 454443596 heartbeat IPC: 1.45553 cumulative IPC: 1.56109 (Simulation time: 1 hr 9 min 45 sec) 
Heartbeat CPU 0 instructions: 720000002 cycles: 461588956 heartbeat IPC: 1.39951 cumulative IPC: 1.55858 (Simulation time: 1 hr 10 min 39 sec) 
Heartbeat CPU 0 instructions: 730000000 cycles: 468745386 heartbeat IPC: 1.39734 cumulative IPC: 1.55612 (Simulation time: 1 hr 11 min 35 sec) 
Heartbeat CPU 0 instructions: 740000004 cycles: 475637261 heartbeat IPC: 1.45098 cumulative IPC: 1.5546 (Simulation time: 1 hr 12 min 31 sec) 
Heartbeat CPU 0 instructions: 750000003 cycles: 481608942 heartbeat IPC: 1.67457 cumulative IPC: 1.55609 (Simulation time: 1 hr 13 min 23 sec) 
Heartbeat CPU 0 instructions: 760000001 cycles: 487582160 heartbeat IPC: 1.67414 cumulative IPC: 1.55753 (Simulation time: 1 hr 14 min 14 sec) 
Heartbeat CPU 0 instructions: 770000000 cycles: 493986763 heartbeat IPC: 1.56138 cumulative IPC: 1.55758 (Simulation time: 1 hr 15 min 6 sec) 
Heartbeat CPU 0 instructions: 780000002 cycles: 500520999 heartbeat IPC: 1.5304 cumulative IPC: 1.55723 (Simulation time: 1 hr 15 min 57 sec) 
Heartbeat CPU 0 instructions: 790000001 cycles: 507015880 heartbeat IPC: 1.53967 cumulative IPC: 1.557 (Simulation time: 1 hr 16 min 51 sec) 
Heartbeat CPU 0 instructions: 800000002 cycles: 513441062 heartbeat IPC: 1.55638 cumulative IPC: 1.55699 (Simulation time: 1 hr 17 min 44 sec) 
Heartbeat CPU 0 instructions: 810000001 cycles: 519881384 heartbeat IPC: 1.55272 cumulative IPC: 1.55694 (Simulation time: 1 hr 18 min 36 sec) 
Heartbeat CPU 0 instructions: 820000003 cycles: 525798800 heartbeat IPC: 1.68993 cumulative IPC: 1.55844 (Simulation time: 1 hr 19 min 28 sec) 
Heartbeat CPU 0 instructions: 830000002 cycles: 531625276 heartbeat IPC: 1.7163 cumulative IPC: 1.56017 (Simulation time: 1 hr 20 min 20 sec) 
Heartbeat CPU 0 instructions: 840000002 cycles: 537478900 heartbeat IPC: 1.70834 cumulative IPC: 1.56178 (Simulation time: 1 hr 21 min 10 sec) 
Heartbeat CPU 0 instructions: 850000001 cycles: 544127457 heartbeat IPC: 1.50409 cumulative IPC: 1.56108 (Simulation time: 1 hr 22 min 5 sec) 
Heartbeat CPU 0 instructions: 860000001 cycles: 551235239 heartbeat IPC: 1.40691 cumulative IPC: 1.55909 (Simulation time: 1 hr 23 min 0 sec) 
Heartbeat CPU 0 instructions: 870000001 cycles: 558437137 heartbeat IPC: 1.38852 cumulative IPC: 1.55689 (Simulation time: 1 hr 23 min 55 sec) 
Heartbeat CPU 0 instructions: 880000001 cycles: 565558676 heartbeat IPC: 1.40419 cumulative IPC: 1.55497 (Simulation time: 1 hr 24 min 50 sec) 
Heartbeat CPU 0 instructions: 890000002 cycles: 572622132 heartbeat IPC: 1.41574 cumulative IPC: 1.55325 (Simulation time: 1 hr 25 min 43 sec) 
Heartbeat CPU 0 instructions: 900000000 cycles: 579066505 heartbeat IPC: 1.55174 cumulative IPC: 1.55323 (Simulation time: 1 hr 26 min 33 sec) 
Heartbeat CPU 0 instructions: 910000003 cycles: 586042192 heartbeat IPC: 1.43355 cumulative IPC: 1.55181 (Simulation time: 1 hr 27 min 25 sec) 
Heartbeat CPU 0 instructions: 920000002 cycles: 593209525 heartbeat IPC: 1.39522 cumulative IPC: 1.54991 (Simulation time: 1 hr 28 min 19 sec) 
Heartbeat CPU 0 instructions: 930000003 cycles: 600341269 heartbeat IPC: 1.40218 cumulative IPC: 1.54816 (Simulation time: 1 hr 29 min 13 sec) 
Heartbeat CPU 0 instructions: 940000004 cycles: 607526216 heartbeat IPC: 1.3918 cumulative IPC: 1.54631 (Simulation time: 1 hr 30 min 6 sec) 
Heartbeat CPU 0 instructions: 950000000 cycles: 614671906 heartbeat IPC: 1.39944 cumulative IPC: 1.5446 (Simulation time: 1 hr 31 min 2 sec) 
Heartbeat CPU 0 instructions: 960000000 cycles: 621829741 heartbeat IPC: 1.39707 cumulative IPC: 1.5429 (Simulation time: 1 hr 31 min 54 sec) 
Heartbeat CPU 0 instructions: 970000001 cycles: 628694523 heartbeat IPC: 1.45671 cumulative IPC: 1.54196 (Simulation time: 1 hr 32 min 43 sec) 
Heartbeat CPU 0 instructions: 980000004 cycles: 635039090 heartbeat IPC: 1.57615 cumulative IPC: 1.5423 (Simulation time: 1 hr 33 min 32 sec) 
Heartbeat CPU 0 instructions: 990000000 cycles: 641741033 heartbeat IPC: 1.4921 cumulative IPC: 1.54178 (Simulation time: 1 hr 34 min 21 sec) 
Heartbeat CPU 0 instructions: 1000000002 cycles: 648534992 heartbeat IPC: 1.4719 cumulative IPC: 1.54104 (Simulation time: 1 hr 35 min 9 sec) 
Finished CPU 0 instructions: 1000000004 cycles: 648893020 cumulative IPC: 1.54109 (Simulation time: 1 hr 35 min 13 sec) 

ChampSim completed all CPUs

Region of Interest Statistics

CPU 0 cumulative IPC: 1.54109 instructions: 1000000004 cycles: 648893020
cpu0_DTLB TOTAL     ACCESS:  258717518  HIT:  251935780  MISS:    6781738
cpu0_DTLB LOAD      ACCESS:  191113797  HIT:  185758171  MISS:    5355626
cpu0_DTLB RFO       ACCESS:   67603721  HIT:   66177609  MISS:    1426112
cpu0_DTLB PREFETCH  ACCESS:          0  HIT:          0  MISS:          0
cpu0_DTLB WRITEBACK ACCESS:          0  HIT:          0  MISS:          0
cpu0_DTLB TRANSLATION ACCESS:          0  HIT:          0  MISS:          0
cpu0_DTLB PREFETCH  REQUESTED:          0  ISSUED:          0  USEFUL:          0  USELESS:          0
cpu0_DTLB AVERAGE MISS LATENCY: 9.08859 cycles
cpu0_ITLB TOTAL     ACCESS:   50126633  HIT:   50126624  MISS:          9
cpu0_ITLB LOAD      ACCESS:   50126633  HIT:   50126624  MISS:          9
cpu0_ITLB RFO       ACCESS:          0  HIT:          0  MISS:          0
cpu0_ITLB PREFETCH  ACCESS:          0  HIT:          0  MISS:          0
cpu0_ITLB WRITEBACK ACCESS:          0  HIT:          0  MISS:          0
cpu0_ITLB TRANSLATION ACCESS:          0  HIT:          0  MISS:          0
cpu0_ITLB PREFETCH  REQUESTED:          0  ISSUED:          0  USEFUL:          0  USELESS:          0
cpu0_ITLB AVERAGE MISS LATENCY: 224.778 cycles
cpu0_L1I TOTAL     ACCESS:   77322435  HIT:   76919730  MISS:     402705
cpu0_L1I LOAD      ACCESS:   77322435  HIT:   76919730  MISS:     402705
cpu0_L1I RFO       ACCESS:          0  HIT:          0  MISS:          0
cpu0_L1I PREFETCH  ACCESS:          0  HIT:          0  MISS:          0
cpu0_L1I WRITEBACK ACCESS:          0  HIT:          0  MISS:          0
cpu0_L1I TRANSLATION ACCESS:          0  HIT:          0  MISS:          0
cpu0_L1I PREFETCH  REQUESTED:          0  ISSUED:          0  USEFUL:          0  USELESS:          0
cpu0_L1I AVERAGE MISS LATENCY: 14.2894 cycles
cpu0_STLB TOTAL     ACCESS:    6781747  HIT:    6781655  MISS:         92
cpu0_STLB LOAD      ACCESS:    5355635  HIT:    5355547  MISS:         88
cpu0_STLB RFO       ACCESS:    1426112  HIT:    1426108  MISS:          4
cpu0_STLB PREFETCH  ACCESS:          0  HIT:          0  MISS:          0
cpu0_STLB WRITEBACK ACCESS:          0  HIT:          0  MISS:          0
cpu0_STLB TRANSLATION ACCESS:          0  HIT:          0  MISS:          0
cpu0_STLB PREFETCH  REQUESTED:          0  ISSUED:          0  USEFUL:          0  USELESS:          0
cpu0_STLB AVERAGE MISS LATENCY: 225.641 cycles
cpu0_L1D TOTAL     ACCESS:  548864078  HIT:  536114151  MISS:   12749927
cpu0_L1D LOAD      ACCESS:  219122889  HIT:  214629808  MISS:    4493081
cpu0_L1D RFO       ACCESS:  118782621  HIT:  116752037  MISS:    2030584
cpu0_L1D PREFETCH  ACCESS:  210958479  HIT:  204732281  MISS:    6226198
cpu0_L1D WRITEBACK ACCESS:          0  HIT:          0  MISS:          0
cpu0_L1D TRANSLATION ACCESS:         89  HIT:         25  MISS:         64
cpu0_L1D PREFETCH  REQUESTED:  219487971  ISSUED:  212071660  USEFUL:    4745727  USELESS:    1594646
cpu0_L1D AVERAGE MISS LATENCY: 13.3209 cycles
cpu0_L2C TOTAL     ACCESS:   16137650  HIT:   15999486  MISS:     138164
cpu0_L2C LOAD      ACCESS:    4802783  HIT:    4766828  MISS:      35955
cpu0_L2C RFO       ACCESS:    1971107  HIT:    1968097  MISS:       3010
cpu0_L2C PREFETCH  ACCESS:    6540819  HIT:    6442131  MISS:      98688
cpu0_L2C WRITEBACK ACCESS:    2822877  HIT:    2822403  MISS:        474
cpu0_L2C TRANSLATION ACCESS:         64  HIT:         27  MISS:         37
cpu0_L2C PREFETCH  REQUESTED:     216431  ISSUED:     205787  USEFUL:       5876  USELESS:       5443
cpu0_L2C AVERAGE MISS LATENCY: 44.0575 cycles
LLC TOTAL     ACCESS:     170980  HIT:     163402  MISS:       7578
LLC LOAD      ACCESS:      35955  HIT:      34783  MISS:       1172
LLC RFO       ACCESS:       2982  HIT:       2861  MISS:        121
LLC PREFETCH  ACCESS:      98689  HIT:      92404  MISS:       6285
LLC WRITEBACK ACCESS:      33317  HIT:      33317  MISS:          0
LLC TRANSLATION ACCESS:         37  HIT:         37  MISS:          0
LLC PREFETCH  REQUESTED:          0  ISSUED:          0  USEFUL:          0  USELESS:          0
LLC AVERAGE MISS LATENCY: 312.792 cycles

DRAM Statistics
 CHANNEL 0
 RQ ROW_BUFFER_HIT:        577  ROW_BUFFER_MISS:       7001
 DBUS AVG_CONGESTED_CYCLE:    3.85833
 WQ ROW_BUFFER_HIT:          0  ROW_BUFFER_MISS:          0  FULL:          0


CPU 0 Branch Prediction Accuracy: 93.7556% MPKI: 6.06479 Average ROB Occupancy at Mispredict: 70.8386
Branch type MPKI
BRANCH_DIRECT_JUMP: 7.9e-05
BRANCH_INDIRECT: 0.235949
BRANCH_CONDITIONAL: 5.82869
BRANCH_DIRECT_CALL: 3.8e-05
BRANCH_INDIRECT_CALL: 0
BRANCH_RETURN: 3.6e-05

