
*** ChampSim Multicore Out-of-Order Simulator ***

Warmup Instructions: 1000000
Simulation Instructions: 1000000000
Number of CPUs: 1
Off-chip DRAM Size: 4 GiB Channels: 1 Width: 64-bit Data Rate: 3200 MT/s

VirtualMemory physical capacity: 8588881920 num_ppages: 2096895
VirtualMemory page size: 4096 log2_page_size: 12

CPU 0 runs tracer/pin/traces/spec2k17/600.perlbench_s-210B.champsimtrace.xz
Basic BTB sets: 1024 ways: 8 indirect buffer size: 4096 RAS size: 64
cpu0_L1D next line prefetcher
cpu0_L2C IP-based stride prefetcher
WARNING: The extended signature CACHE::prefetch_line(ip, base_addr, pf_addr, fill_this_level, prefetch_metadata) is deprecated.
WARNING: Use CACHE::prefetch_line(pf_addr, fill_this_level, prefetch_metadata) instead.

Warmup complete CPU 0 instructions: 1000005 cycles: 250978 (Simulation time: 0 hr 0 min 4 sec) 

Heartbeat CPU 0 instructions: 10000000 cycles: 5199667 heartbeat IPC: 1.9232 cumulative IPC: 1.81866 (Simulation time: 0 hr 0 min 52 sec) 
Heartbeat CPU 0 instructions: 20000002 cycles: 10273966 heartbeat IPC: 1.97072 cumulative IPC: 1.89564 (Simulation time: 0 hr 1 min 48 sec) 
Heartbeat CPU 0 instructions: 30000000 cycles: 15378649 heartbeat IPC: 1.95899 cumulative IPC: 1.91702 (Simulation time: 0 hr 2 min 42 sec) 
Heartbeat CPU 0 instructions: 40000002 cycles: 20535921 heartbeat IPC: 1.93901 cumulative IPC: 1.92261 (Simulation time: 0 hr 3 min 37 sec) 
Heartbeat CPU 0 instructions: 50000002 cycles: 25675744 heartbeat IPC: 1.94559 cumulative IPC: 1.92725 (Simulation time: 0 hr 4 min 35 sec) 
Heartbeat CPU 0 instructions: 60000004 cycles: 30837221 heartbeat IPC: 1.93743 cumulative IPC: 1.92897 (Simulation time: 0 hr 5 min 34 sec) 
Heartbeat CPU 0 instructions: 70000003 cycles: 35447740 heartbeat IPC: 2.16895 cumulative IPC: 1.96041 (Simulation time: 0 hr 6 min 26 sec) 
Heartbeat CPU 0 instructions: 80000000 cycles: 40095182 heartbeat IPC: 2.15172 cumulative IPC: 1.98272 (Simulation time: 0 hr 7 min 20 sec) 
Heartbeat CPU 0 instructions: 90000004 cycles: 45235366 heartbeat IPC: 1.94546 cumulative IPC: 1.97846 (Simulation time: 0 hr 8 min 16 sec) 
Heartbeat CPU 0 instructions: 100000004 cycles: 50297848 heartbeat IPC: 1.97532 cumulative IPC: 1.97815 (Simulation time: 0 hr 9 min 14 sec) 
Heartbeat CPU 0 instructions: 110000001 cycles: 55431024 heartbeat IPC: 1.94811 cumulative IPC: 1.97535 (Simulation time: 0 hr 10 min 9 sec) 
Heartbeat CPU 0 instructions: 120000003 cycles: 60509899 heartbeat IPC: 1.96894 cumulative IPC: 1.97481 (Simulation time: 0 hr 11 min 6 sec) 
Heartbeat CPU 0 instructions: 130000001 cycles: 65732198 heartbeat IPC: 1.91487 cumulative IPC: 1.97003 (Simulation time: 0 hr 12 min 6 sec) 
Heartbeat CPU 0 instructions: 140000002 cycles: 71071294 heartbeat IPC: 1.87298 cumulative IPC: 1.96271 (Simulation time: 0 hr 13 min 4 sec) 
Heartbeat CPU 0 instructions: 150000003 cycles: 76363982 heartbeat IPC: 1.8894 cumulative IPC: 1.95762 (Simulation time: 0 hr 14 min 1 sec) 
Heartbeat CPU 0 instructions: 160000002 cycles: 81422085 heartbeat IPC: 1.97703 cumulative IPC: 1.95882 (Simulation time: 0 hr 14 min 55 sec) 
Heartbeat CPU 0 instructions: 170000000 cycles: 86667607 heartbeat IPC: 1.90639 cumulative IPC: 1.95564 (Simulation time: 0 hr 15 min 52 sec) 
Heartbeat CPU 0 instructions: 180000001 cycles: 91554861 heartbeat IPC: 2.04614 cumulative IPC: 1.96049 (Simulation time: 0 hr 16 min 47 sec) 
Heartbeat CPU 0 instructions: 190000000 cycles: 96786517 heartbeat IPC: 1.91144 cumulative IPC: 1.95783 (Simulation time: 0 hr 17 min 42 sec) 
Heartbeat CPU 0 instructions: 200000002 cycles: 102214805 heartbeat IPC: 1.8422 cumulative IPC: 1.95167 (Simulation time: 0 hr 18 min 44 sec) 
Heartbeat CPU 0 instructions: 210000003 cycles: 107438368 heartbeat IPC: 1.9144 cumulative IPC: 1.94986 (Simulation time: 0 hr 19 min 44 sec) 
Heartbeat CPU 0 instructions: 220000001 cycles: 112640662 heartbeat IPC: 1.92223 cumulative IPC: 1.94858 (Simulation time: 0 hr 20 min 43 sec) 
Heartbeat CPU 0 instructions: 230000003 cycles: 117776540 heartbeat IPC: 1.94709 cumulative IPC: 1.94851 (Simulation time: 0 hr 21 min 44 sec) 
Heartbeat CPU 0 instructions: 240000003 cycles: 122901792 heartbeat IPC: 1.95112 cumulative IPC: 1.94862 (Simulation time: 0 hr 22 min 42 sec) 
Heartbeat CPU 0 instructions: 250000002 cycles: 127614229 heartbeat IPC: 2.12204 cumulative IPC: 1.95504 (Simulation time: 0 hr 23 min 36 sec) 
Heartbeat CPU 0 instructions: 260000001 cycles: 132696537 heartbeat IPC: 1.96761 cumulative IPC: 1.95552 (Simulation time: 0 hr 24 min 36 sec) 
Heartbeat CPU 0 instructions: 270000002 cycles: 137762208 heartbeat IPC: 1.97407 cumulative IPC: 1.9562 (Simulation time: 0 hr 25 min 35 sec) 
Heartbeat CPU 0 instructions: 280000003 cycles: 142856457 heartbeat IPC: 1.963 cumulative IPC: 1.95645 (Simulation time: 0 hr 26 min 30 sec) 
Heartbeat CPU 0 instructions: 290000000 cycles: 147844713 heartbeat IPC: 2.00471 cumulative IPC: 1.95808 (Simulation time: 0 hr 27 min 26 sec) 
Heartbeat CPU 0 instructions: 300000003 cycles: 153236599 heartbeat IPC: 1.85464 cumulative IPC: 1.95443 (Simulation time: 0 hr 28 min 22 sec) 
Heartbeat CPU 0 instructions: 310000002 cycles: 158490813 heartbeat IPC: 1.90323 cumulative IPC: 1.95273 (Simulation time: 0 hr 29 min 19 sec) 
Heartbeat CPU 0 instructions: 320000002 cycles: 163542351 heartbeat IPC: 1.9796 cumulative IPC: 1.95356 (Simulation time: 0 hr 30 min 15 sec) 
Heartbeat CPU 0 instructions: 330000004 cycles: 168385664 heartbeat IPC: 2.0647 cumulative IPC: 1.95676 (Simulation time: 0 hr 31 min 9 sec) 
Heartbeat CPU 0 instructions: 340000002 cycles: 173478907 heartbeat IPC: 1.96339 cumulative IPC: 1.95696 (Simulation time: 0 hr 32 min 3 sec) 
Heartbeat CPU 0 instructions: 350000003 cycles: 178680240 heartbeat IPC: 1.92258 cumulative IPC: 1.95596 (Simulation time: 0 hr 32 min 57 sec) 
Heartbeat CPU 0 instructions: 360000002 cycles: 183867153 heartbeat IPC: 1.92793 cumulative IPC: 1.95517 (Simulation time: 0 hr 33 min 57 sec) 
Heartbeat CPU 0 instructions: 370000001 cycles: 188950438 heartbeat IPC: 1.96723 cumulative IPC: 1.95549 (Simulation time: 0 hr 34 min 53 sec) 
Heartbeat CPU 0 instructions: 380000000 cycles: 194118215 heartbeat IPC: 1.93507 cumulative IPC: 1.95495 (Simulation time: 0 hr 35 min 50 sec) 
Heartbeat CPU 0 instructions: 390000000 cycles: 199312670 heartbeat IPC: 1.92513 cumulative IPC: 1.95417 (Simulation time: 0 hr 36 min 50 sec) 
Heartbeat CPU 0 instructions: 400000001 cycles: 204435206 heartbeat IPC: 1.95216 cumulative IPC: 1.95412 (Simulation time: 0 hr 37 min 49 sec) 
Heartbeat CPU 0 instructions: 410000000 cycles: 209106970 heartbeat IPC: 2.14052 cumulative IPC: 1.95829 (Simulation time: 0 hr 38 min 45 sec) 
Heartbeat CPU 0 instructions: 420000001 cycles: 214133768 heartbeat IPC: 1.98934 cumulative IPC: 1.95902 (Simulation time: 0 hr 39 min 41 sec) 
Heartbeat CPU 0 instructions: 430000000 cycles: 219342473 heartbeat IPC: 1.91986 cumulative IPC: 1.95809 (Simulation time: 0 hr 40 min 36 sec) 
Heartbeat CPU 0 instructions: 440000000 cycles: 224578709 heartbeat IPC: 1.90977 cumulative IPC: 1.95696 (Simulation time: 0 hr 41 min 36 sec) 
Heartbeat CPU 0 instructions: 450000000 cycles: 229585919 heartbeat IPC: 1.99712 cumulative IPC: 1.95784 (Simulation time: 0 hr 42 min 32 sec) 
Heartbeat CPU 0 instructions: 460000000 cycles: 234876278 heartbeat IPC: 1.89023 cumulative IPC: 1.95631 (Simulation time: 0 hr 43 min 30 sec) 
Heartbeat CPU 0 instructions: 470000001 cycles: 243783699 heartbeat IPC: 1.12266 cumulative IPC: 1.92582 (Simulation time: 0 hr 44 min 33 sec) 
Heartbeat CPU 0 instructions: 480000002 cycles: 251515852 heartbeat IPC: 1.2933 cumulative IPC: 1.90635 (Simulation time: 0 hr 45 min 34 sec) 
Heartbeat CPU 0 instructions: 490000001 cycles: 257238905 heartbeat IPC: 1.74732 cumulative IPC: 1.90281 (Simulation time: 0 hr 46 min 31 sec) 
Heartbeat CPU 0 instructions: 500000003 cycles: 263330494 heartbeat IPC: 1.64161 cumulative IPC: 1.89676 (Simulation time: 0 hr 47 min 28 sec) 
Heartbeat CPU 0 instructions: 510000001 cycles: 273049068 heartbeat IPC: 1.02896 cumulative IPC: 1.86585 (Simulation time: 0 hr 48 min 32 sec) 
Heartbeat CPU 0 instructions: 520000001 cycles: 287041443 heartbeat IPC: 0.714675 cumulative IPC: 1.80968 (Simulation time: 0 hr 49 min 49 sec) 
Heartbeat CPU 0 instructions: 530000003 cycles: 298793619 heartbeat IPC: 0.850906 cumulative IPC: 1.77194 (Simulation time: 0 hr 50 min 59 sec) 
Heartbeat CPU 0 instructions: 540000001 cycles: 309470148 heartbeat IPC: 0.936634 cumulative IPC: 1.7431 (Simulation time: 0 hr 52 min 7 sec) 
Heartbeat CPU 0 instructions: 550000002 cycles: 323485854 heartbeat IPC: 0.713485 cumulative IPC: 1.69846 (Simulation time: 0 hr 53 min 26 sec) 
Heartbeat CPU 0 instructions: 560000000 cycles: 329674763 heartbeat IPC: 1.61579 cumulative IPC: 1.6969 (Simulation time: 0 hr 54 min 27 sec) 
Heartbeat CPU 0 instructions: 570000000 cycles: 335576651 heartbeat IPC: 1.69437 cumulative IPC: 1.69686 (Simulation time: 0 hr 55 min 26 sec) 
Heartbeat CPU 0 instructions: 580000000 cycles: 341839889 heartbeat IPC: 1.59662 cumulative IPC: 1.69502 (Simulation time: 0 hr 56 min 29 sec) 
Heartbeat CPU 0 instructions: 590000001 cycles: 348129644 heartbeat IPC: 1.58989 cumulative IPC: 1.69312 (Simulation time: 0 hr 57 min 32 sec) 
Heartbeat CPU 0 instructions: 600000000 cycles: 358724185 heartbeat IPC: 0.943882 cumulative IPC: 1.67098 (Simulation time: 0 hr 58 min 43 sec) 
Heartbeat CPU 0 instructions: 610000000 cycles: 371785480 heartbeat IPC: 0.765621 cumulative IPC: 1.63915 (Simulation time: 1 hr 0 min 0 sec) 
Heartbeat CPU 0 instructions: 620000001 cycles: 384772282 heartbeat IPC: 0.770013 cumulative IPC: 1.60979 (Simulation time: 1 hr 1 min 11 sec) 
Heartbeat CPU 0 instructions: 630000002 cycles: 395279276 heartbeat IPC: 0.951747 cumulative IPC: 1.59229 (Simulation time: 1 hr 2 min 25 sec) 
Heartbeat CPU 0 instructions: 640000000 cycles: 406737760 heartbeat IPC: 0.872716 cumulative IPC: 1.57201 (Simulation time: 1 hr 3 min 42 sec) 
Heartbeat CPU 0 instructions: 650000000 cycles: 420325376 heartbeat IPC: 0.735964 cumulative IPC: 1.54496 (Simulation time: 1 hr 4 min 58 sec) 
Heartbeat CPU 0 instructions: 660000000 cycles: 433482256 heartbeat IPC: 0.760059 cumulative IPC: 1.52113 (Simulation time: 1 hr 6 min 14 sec) 
Heartbeat CPU 0 instructions: 670000003 cycles: 442446382 heartbeat IPC: 1.11556 cumulative IPC: 1.51291 (Simulation time: 1 hr 7 min 27 sec) 
Heartbeat CPU 0 instructions: 680000000 cycles: 458219175 heartbeat IPC: 0.634003 cumulative IPC: 1.48264 (Simulation time: 1 hr 8 min 52 sec) 
Heartbeat CPU 0 instructions: 690000004 cycles: 471855943 heartbeat IPC: 0.733312 cumulative IPC: 1.46097 (Simulation time: 1 hr 10 min 11 sec) 
Heartbeat CPU 0 instructions: 700000001 cycles: 476817853 heartbeat IPC: 2.01535 cumulative IPC: 1.46674 (Simulation time: 1 hr 11 min 10 sec) 
Heartbeat CPU 0 instructions: 710000003 cycles: 481857363 heartbeat IPC: 1.98432 cumulative IPC: 1.47216 (Simulation time: 1 hr 12 min 6 sec) 
Heartbeat CPU 0 instructions: 720000001 cycles: 486956122 heartbeat IPC: 1.96126 cumulative IPC: 1.47728 (Simulation time: 1 hr 13 min 1 sec) 
Heartbeat CPU 0 instructions: 730000002 cycles: 491994437 heartbeat IPC: 1.98479 cumulative IPC: 1.48248 (Simulation time: 1 hr 13 min 58 sec) 
Heartbeat CPU 0 instructions: 740000002 cycles: 496971768 heartbeat IPC: 2.00911 cumulative IPC: 1.48776 (Simulation time: 1 hr 14 min 55 sec) 
Heartbeat CPU 0 instructions: 750000003 cycles: 501921726 heartbeat IPC: 2.02022 cumulative IPC: 1.49301 (Simulation time: 1 hr 15 min 55 sec) 
Heartbeat CPU 0 instructions: 760000001 cycles: 507010130 heartbeat IPC: 1.96525 cumulative IPC: 1.49775 (Simulation time: 1 hr 16 min 51 sec) 
Heartbeat CPU 0 instructions: 770000002 cycles: 511985854 heartbeat IPC: 2.00976 cumulative IPC: 1.50273 (Simulation time: 1 hr 17 min 47 sec) 
Heartbeat CPU 0 instructions: 780000002 cycles: 517032319 heartbeat IPC: 1.98159 cumulative IPC: 1.50741 (Simulation time: 1 hr 18 min 40 sec) 
Heartbeat CPU 0 instructions: 790000004 cycles: 522036151 heartbeat IPC: 1.99847 cumulative IPC: 1.51212 (Simulation time: 1 hr 19 min 36 sec) 
Heartbeat CPU 0 instructions: 800000004 cycles: 527037895 heartbeat IPC: 1.9993 cumulative IPC: 1.51674 (Simulation time: 1 hr 20 min 29 sec) 
Heartbeat CPU 0 instructions: 810000001 cycles: 532055922 heartbeat IPC: 1.99281 cumulative IPC: 1.52123 (Simulation time: 1 hr 21 min 25 sec) 
Heartbeat CPU 0 instructions: 820000000 cycles: 536701619 heartbeat IPC: 2.15253 cumulative IPC: 1.5267 (Simulation time: 1 hr 22 min 16 sec) 
Heartbeat CPU 0 instructions: 830000004 cycles: 541291292 heartbeat IPC: 2.17881 cumulative IPC: 1.53223 (Simulation time: 1 hr 23 min 8 sec) 
Heartbeat CPU 0 instructions: 840000003 cycles: 546215424 heartbeat IPC: 2.03081 cumulative IPC: 1.53673 (Simulation time: 1 hr 24 min 3 sec) 
Heartbeat CPU 0 instructions: 850000001 cycles: 551145391 heartbeat IPC: 2.02841 cumulative IPC: 1.54113 (Simulation time: 1 hr 24 min 57 sec) 
Heartbeat CPU 0 instructions: 860000000 cycles: 556173585 heartbeat IPC: 1.98879 cumulative IPC: 1.54518 (Simulation time: 1 hr 25 min 52 sec) 
Heartbeat CPU 0 instructions: 870000004 cycles: 561235544 heartbeat IPC: 1.97552 cumulative IPC: 1.54906 (Simulation time: 1 hr 26 min 46 sec) 
Heartbeat CPU 0 instructions: 880000002 cycles: 566259349 heartbeat IPC: 1.99052 cumulative IPC: 1.55298 (Simulation time: 1 hr 27 min 43 sec) 
Heartbeat CPU 0 instructions: 890000001 cycles: 571293730 heartbeat IPC: 1.98634 cumulative IPC: 1.5568 (Simulation time: 1 hr 28 min 39 sec) 
Heartbeat CPU 0 instructions: 900000001 cycles: 576246571 heartbeat IPC: 2.01904 cumulative IPC: 1.56078 (Simulation time: 1 hr 29 min 34 sec) 
Heartbeat CPU 0 instructions: 910000002 cycles: 581233451 heartbeat IPC: 2.00526 cumulative IPC: 1.56459 (Simulation time: 1 hr 30 min 24 sec) 
Heartbeat CPU 0 instructions: 920000001 cycles: 586294955 heartbeat IPC: 1.9757 cumulative IPC: 1.56814 (Simulation time: 1 hr 31 min 18 sec) 
Heartbeat CPU 0 instructions: 930000002 cycles: 591187289 heartbeat IPC: 2.04401 cumulative IPC: 1.57208 (Simulation time: 1 hr 32 min 10 sec) 
Heartbeat CPU 0 instructions: 940000002 cycles: 596313139 heartbeat IPC: 1.9509 cumulative IPC: 1.57534 (Simulation time: 1 hr 33 min 3 sec) 
Heartbeat CPU 0 instructions: 950000003 cycles: 601603900 heartbeat IPC: 1.89009 cumulative IPC: 1.57811 (Simulation time: 1 hr 33 min 58 sec) 
Heartbeat CPU 0 instructions: 960000000 cycles: 606535281 heartbeat IPC: 2.02783 cumulative IPC: 1.58177 (Simulation time: 1 hr 34 min 53 sec) 
Heartbeat CPU 0 instructions: 970000000 cycles: 611505084 heartbeat IPC: 2.01215 cumulative IPC: 1.58527 (Simulation time: 1 hr 35 min 47 sec) 
Heartbeat CPU 0 instructions: 980000000 cycles: 616611557 heartbeat IPC: 1.9583 cumulative IPC: 1.58836 (Simulation time: 1 hr 36 min 40 sec) 
Heartbeat CPU 0 instructions: 990000004 cycles: 621568464 heartbeat IPC: 2.01739 cumulative IPC: 1.59178 (Simulation time: 1 hr 37 min 35 sec) 
Heartbeat CPU 0 instructions: 1000000000 cycles: 626426606 heartbeat IPC: 2.0584 cumulative IPC: 1.5954 (Simulation time: 1 hr 38 min 28 sec) 
Finished CPU 0 instructions: 1000000001 cycles: 626654513 cumulative IPC: 1.59578 (Simulation time: 1 hr 38 min 33 sec) 

ChampSim completed all CPUs

Region of Interest Statistics

CPU 0 cumulative IPC: 1.59578 instructions: 1000000001 cycles: 626654513
cpu0_DTLB TOTAL     ACCESS:  196176085  HIT:  195083292  MISS:    1092793
cpu0_DTLB LOAD      ACCESS:  113941888  HIT:  112953631  MISS:     988257
cpu0_DTLB RFO       ACCESS:   82234197  HIT:   82129661  MISS:     104536
cpu0_DTLB PREFETCH  ACCESS:          0  HIT:          0  MISS:          0
cpu0_DTLB WRITEBACK ACCESS:          0  HIT:          0  MISS:          0
cpu0_DTLB TRANSLATION ACCESS:          0  HIT:          0  MISS:          0
cpu0_DTLB PREFETCH  REQUESTED:          0  ISSUED:          0  USEFUL:          0  USELESS:          0
cpu0_DTLB AVERAGE MISS LATENCY: 10.3518 cycles
cpu0_ITLB TOTAL     ACCESS:   58086167  HIT:   57967731  MISS:     118436
cpu0_ITLB LOAD      ACCESS:   58086167  HIT:   57967731  MISS:     118436
cpu0_ITLB RFO       ACCESS:          0  HIT:          0  MISS:          0
cpu0_ITLB PREFETCH  ACCESS:          0  HIT:          0  MISS:          0
cpu0_ITLB WRITEBACK ACCESS:          0  HIT:          0  MISS:          0
cpu0_ITLB TRANSLATION ACCESS:          0  HIT:          0  MISS:          0
cpu0_ITLB PREFETCH  REQUESTED:          0  ISSUED:          0  USEFUL:          0  USELESS:          0
cpu0_ITLB AVERAGE MISS LATENCY: 9.49729 cycles
cpu0_L1I TOTAL     ACCESS:   80609927  HIT:   79029119  MISS:    1580808
cpu0_L1I LOAD      ACCESS:   80609927  HIT:   79029119  MISS:    1580808
cpu0_L1I RFO       ACCESS:          0  HIT:          0  MISS:          0
cpu0_L1I PREFETCH  ACCESS:          0  HIT:          0  MISS:          0
cpu0_L1I WRITEBACK ACCESS:          0  HIT:          0  MISS:          0
cpu0_L1I TRANSLATION ACCESS:          0  HIT:          0  MISS:          0
cpu0_L1I PREFETCH  REQUESTED:          0  ISSUED:          0  USEFUL:          0  USELESS:          0
cpu0_L1I AVERAGE MISS LATENCY: 19.7011 cycles
cpu0_STLB TOTAL     ACCESS:    1211229  HIT:    1177533  MISS:      33696
cpu0_STLB LOAD      ACCESS:    1106693  HIT:    1076864  MISS:      29829
cpu0_STLB RFO       ACCESS:     104536  HIT:     100669  MISS:       3867
cpu0_STLB PREFETCH  ACCESS:          0  HIT:          0  MISS:          0
cpu0_STLB WRITEBACK ACCESS:          0  HIT:          0  MISS:          0
cpu0_STLB TRANSLATION ACCESS:          0  HIT:          0  MISS:          0
cpu0_STLB PREFETCH  REQUESTED:          0  ISSUED:          0  USEFUL:          0  USELESS:          0
cpu0_STLB AVERAGE MISS LATENCY: 44.9108 cycles
cpu0_L1D TOTAL     ACCESS:  480361345  HIT:  477771303  MISS:    2590042
cpu0_L1D LOAD      ACCESS:  136941637  HIT:  135715055  MISS:    1226582
cpu0_L1D RFO       ACCESS:  208620971  HIT:  208498374  MISS:     122597
cpu0_L1D PREFETCH  ACCESS:  134765225  HIT:  133531598  MISS:    1233627
cpu0_L1D WRITEBACK ACCESS:          0  HIT:          0  MISS:          0
cpu0_L1D TRANSLATION ACCESS:      33512  HIT:      26276  MISS:       7236
cpu0_L1D PREFETCH  REQUESTED:  137046649  ISSUED:  135139671  USEFUL:     983961  USELESS:     285286
cpu0_L1D AVERAGE MISS LATENCY: 69.3505 cycles
cpu0_L2C TOTAL     ACCESS:    4863376  HIT:    3770549  MISS:    1092827
cpu0_L2C LOAD      ACCESS:    2772410  HIT:    2149357  MISS:     623053
cpu0_L2C RFO       ACCESS:     121450  HIT:      82706  MISS:      38744
cpu0_L2C PREFETCH  ACCESS:    1492455  HIT:    1067602  MISS:     424853
cpu0_L2C WRITEBACK ACCESS:     469825  HIT:     464413  MISS:       5412
cpu0_L2C TRANSLATION ACCESS:       7236  HIT:       6471  MISS:        765
cpu0_L2C PREFETCH  REQUESTED:     236596  ISSUED:     226224  USEFUL:      11751  USELESS:      16363
cpu0_L2C AVERAGE MISS LATENCY: 155.079 cycles
LLC TOTAL     ACCESS:    1238874  HIT:     787295  MISS:     451579
LLC LOAD      ACCESS:     623043  HIT:     405390  MISS:     217653
LLC RFO       ACCESS:      38744  HIT:      19717  MISS:      19027
LLC PREFETCH  ACCESS:     424935  HIT:     210747  MISS:     214188
LLC WRITEBACK ACCESS:     151387  HIT:     150689  MISS:        698
LLC TRANSLATION ACCESS:        765  HIT:        752  MISS:         13
LLC PREFETCH  REQUESTED:          0  ISSUED:          0  USEFUL:          0  USELESS:          0
LLC AVERAGE MISS LATENCY: 310.435 cycles

DRAM Statistics
 CHANNEL 0
 RQ ROW_BUFFER_HIT:      42611  ROW_BUFFER_MISS:     408258
 DBUS AVG_CONGESTED_CYCLE:     3.6189
 WQ ROW_BUFFER_HIT:      22087  ROW_BUFFER_MISS:      35945  FULL:          0


CPU 0 Branch Prediction Accuracy: 97.4562% MPKI: 3.77512 Average ROB Occupancy at Mispredict: 75.6979
Branch type MPKI
BRANCH_DIRECT_JUMP: 0.001867
BRANCH_INDIRECT: 0.329909
BRANCH_CONDITIONAL: 3.30117
BRANCH_DIRECT_CALL: 0.001896
BRANCH_INDIRECT_CALL: 0.134225
BRANCH_RETURN: 0.00605

