
*** ChampSim Multicore Out-of-Order Simulator ***

Warmup Instructions: 1000000
Simulation Instructions: 1000000000
Number of CPUs: 1
Off-chip DRAM Size: 4 GiB Channels: 1 Width: 64-bit Data Rate: 3200 MT/s

VirtualMemory physical capacity: 8588881920 num_ppages: 2096895
VirtualMemory page size: 4096 log2_page_size: 12

CPU 0 runs tracer/pin/traces/spec2k6/458.sjeng-1088B.champsimtrace.xz
Basic BTB sets: 1024 ways: 8 indirect buffer size: 4096 RAS size: 64
cpu0_L1D next line prefetcher
cpu0_L2C IP-based stride prefetcher
WARNING: The extended signature CACHE::prefetch_line(ip, base_addr, pf_addr, fill_this_level, prefetch_metadata) is deprecated.
WARNING: Use CACHE::prefetch_line(pf_addr, fill_this_level, prefetch_metadata) instead.

Warmup complete CPU 0 instructions: 1000004 cycles: 251238 (Simulation time: 0 hr 0 min 3 sec) 

Heartbeat CPU 0 instructions: 10000000 cycles: 9847455 heartbeat IPC: 1.01549 cumulative IPC: 0.937869 (Simulation time: 0 hr 0 min 40 sec) 
Heartbeat CPU 0 instructions: 20000001 cycles: 20442224 heartbeat IPC: 0.943862 cumulative IPC: 0.941014 (Simulation time: 0 hr 1 min 20 sec) 
Heartbeat CPU 0 instructions: 30000001 cycles: 30802332 heartbeat IPC: 0.965241 cumulative IPC: 0.949229 (Simulation time: 0 hr 2 min 1 sec) 
Heartbeat CPU 0 instructions: 40000000 cycles: 40971739 heartbeat IPC: 0.983341 cumulative IPC: 0.957748 (Simulation time: 0 hr 2 min 42 sec) 
Heartbeat CPU 0 instructions: 50000001 cycles: 51378213 heartbeat IPC: 0.96094 cumulative IPC: 0.958398 (Simulation time: 0 hr 3 min 25 sec) 
Heartbeat CPU 0 instructions: 60000004 cycles: 61624718 heartbeat IPC: 0.975943 cumulative IPC: 0.961327 (Simulation time: 0 hr 4 min 7 sec) 
Heartbeat CPU 0 instructions: 70000002 cycles: 71850505 heartbeat IPC: 0.97792 cumulative IPC: 0.963697 (Simulation time: 0 hr 4 min 50 sec) 
Heartbeat CPU 0 instructions: 80000003 cycles: 81872451 heartbeat IPC: 0.99781 cumulative IPC: 0.967886 (Simulation time: 0 hr 5 min 33 sec) 
Heartbeat CPU 0 instructions: 90000001 cycles: 91980076 heartbeat IPC: 0.989352 cumulative IPC: 0.970251 (Simulation time: 0 hr 6 min 16 sec) 
Heartbeat CPU 0 instructions: 100000004 cycles: 102104507 heartbeat IPC: 0.98771 cumulative IPC: 0.971986 (Simulation time: 0 hr 7 min 0 sec) 
Heartbeat CPU 0 instructions: 110000003 cycles: 112268893 heartbeat IPC: 0.983827 cumulative IPC: 0.973061 (Simulation time: 0 hr 7 min 44 sec) 
Heartbeat CPU 0 instructions: 120000000 cycles: 122462631 heartbeat IPC: 0.980994 cumulative IPC: 0.973723 (Simulation time: 0 hr 8 min 25 sec) 
Heartbeat CPU 0 instructions: 130000002 cycles: 132329437 heartbeat IPC: 1.0135 cumulative IPC: 0.976694 (Simulation time: 0 hr 9 min 7 sec) 
Heartbeat CPU 0 instructions: 140000000 cycles: 142429651 heartbeat IPC: 0.990078 cumulative IPC: 0.977645 (Simulation time: 0 hr 9 min 54 sec) 
Heartbeat CPU 0 instructions: 150000003 cycles: 152448869 heartbeat IPC: 0.998082 cumulative IPC: 0.97899 (Simulation time: 0 hr 10 min 38 sec) 
Heartbeat CPU 0 instructions: 160000002 cycles: 162455258 heartbeat IPC: 0.999361 cumulative IPC: 0.980247 (Simulation time: 0 hr 11 min 24 sec) 
Heartbeat CPU 0 instructions: 170000000 cycles: 172551121 heartbeat IPC: 0.990505 cumulative IPC: 0.980848 (Simulation time: 0 hr 12 min 9 sec) 
Heartbeat CPU 0 instructions: 180000004 cycles: 182588680 heartbeat IPC: 0.996259 cumulative IPC: 0.981696 (Simulation time: 0 hr 12 min 56 sec) 
Heartbeat CPU 0 instructions: 190000002 cycles: 192708634 heartbeat IPC: 0.988147 cumulative IPC: 0.982036 (Simulation time: 0 hr 13 min 39 sec) 
Heartbeat CPU 0 instructions: 200000001 cycles: 202717023 heartbeat IPC: 0.999162 cumulative IPC: 0.982882 (Simulation time: 0 hr 14 min 25 sec) 
Heartbeat CPU 0 instructions: 210000000 cycles: 213053243 heartbeat IPC: 0.967472 cumulative IPC: 0.982134 (Simulation time: 0 hr 15 min 13 sec) 
Heartbeat CPU 0 instructions: 220000002 cycles: 222783628 heartbeat IPC: 1.02771 cumulative IPC: 0.984126 (Simulation time: 0 hr 15 min 59 sec) 
Heartbeat CPU 0 instructions: 230000001 cycles: 232640767 heartbeat IPC: 1.01449 cumulative IPC: 0.985414 (Simulation time: 0 hr 16 min 46 sec) 
Heartbeat CPU 0 instructions: 240000004 cycles: 242734978 heartbeat IPC: 0.990667 cumulative IPC: 0.985633 (Simulation time: 0 hr 17 min 32 sec) 
Heartbeat CPU 0 instructions: 250000002 cycles: 252861484 heartbeat IPC: 0.987507 cumulative IPC: 0.985708 (Simulation time: 0 hr 18 min 20 sec) 
Heartbeat CPU 0 instructions: 260000002 cycles: 262894483 heartbeat IPC: 0.996711 cumulative IPC: 0.986129 (Simulation time: 0 hr 19 min 8 sec) 
Heartbeat CPU 0 instructions: 270000003 cycles: 272314177 heartbeat IPC: 1.06161 cumulative IPC: 0.988742 (Simulation time: 0 hr 19 min 54 sec) 
Heartbeat CPU 0 instructions: 280000000 cycles: 282217609 heartbeat IPC: 1.00975 cumulative IPC: 0.98948 (Simulation time: 0 hr 20 min 41 sec) 
Heartbeat CPU 0 instructions: 290000000 cycles: 291970644 heartbeat IPC: 1.02532 cumulative IPC: 0.990678 (Simulation time: 0 hr 21 min 28 sec) 
Heartbeat CPU 0 instructions: 300000004 cycles: 302042479 heartbeat IPC: 0.992868 cumulative IPC: 0.990751 (Simulation time: 0 hr 22 min 14 sec) 
Heartbeat CPU 0 instructions: 310000002 cycles: 311888930 heartbeat IPC: 1.01559 cumulative IPC: 0.991536 (Simulation time: 0 hr 23 min 1 sec) 
Heartbeat CPU 0 instructions: 320000003 cycles: 322017257 heartbeat IPC: 0.98733 cumulative IPC: 0.991404 (Simulation time: 0 hr 23 min 47 sec) 
Heartbeat CPU 0 instructions: 330000004 cycles: 332289607 heartbeat IPC: 0.973487 cumulative IPC: 0.990849 (Simulation time: 0 hr 24 min 34 sec) 
Heartbeat CPU 0 instructions: 340000002 cycles: 342303557 heartbeat IPC: 0.998607 cumulative IPC: 0.991076 (Simulation time: 0 hr 25 min 21 sec) 
Heartbeat CPU 0 instructions: 350000001 cycles: 352282398 heartbeat IPC: 1.00212 cumulative IPC: 0.99139 (Simulation time: 0 hr 26 min 9 sec) 
Heartbeat CPU 0 instructions: 360000000 cycles: 362515596 heartbeat IPC: 0.977212 cumulative IPC: 0.990989 (Simulation time: 0 hr 26 min 58 sec) 
Heartbeat CPU 0 instructions: 370000002 cycles: 372519780 heartbeat IPC: 0.999582 cumulative IPC: 0.99122 (Simulation time: 0 hr 27 min 46 sec) 
Heartbeat CPU 0 instructions: 380000000 cycles: 382491109 heartbeat IPC: 1.00288 cumulative IPC: 0.991524 (Simulation time: 0 hr 28 min 36 sec) 
Heartbeat CPU 0 instructions: 390000004 cycles: 392587592 heartbeat IPC: 0.990444 cumulative IPC: 0.991496 (Simulation time: 0 hr 29 min 25 sec) 
Heartbeat CPU 0 instructions: 400000000 cycles: 402925692 heartbeat IPC: 0.967295 cumulative IPC: 0.990875 (Simulation time: 0 hr 30 min 15 sec) 
Heartbeat CPU 0 instructions: 410000000 cycles: 412778836 heartbeat IPC: 1.0149 cumulative IPC: 0.991449 (Simulation time: 0 hr 31 min 3 sec) 
Heartbeat CPU 0 instructions: 420000004 cycles: 422801233 heartbeat IPC: 0.997766 cumulative IPC: 0.991599 (Simulation time: 0 hr 31 min 51 sec) 
Heartbeat CPU 0 instructions: 430000000 cycles: 432966366 heartbeat IPC: 0.983755 cumulative IPC: 0.991414 (Simulation time: 0 hr 32 min 42 sec) 
Heartbeat CPU 0 instructions: 440000002 cycles: 443164914 heartbeat IPC: 0.980532 cumulative IPC: 0.991164 (Simulation time: 0 hr 33 min 32 sec) 
Heartbeat CPU 0 instructions: 450000001 cycles: 453171386 heartbeat IPC: 0.999353 cumulative IPC: 0.991345 (Simulation time: 0 hr 34 min 23 sec) 
Heartbeat CPU 0 instructions: 460000002 cycles: 462994186 heartbeat IPC: 1.01804 cumulative IPC: 0.991911 (Simulation time: 0 hr 35 min 13 sec) 
Heartbeat CPU 0 instructions: 470000001 cycles: 472926376 heartbeat IPC: 1.00683 cumulative IPC: 0.992225 (Simulation time: 0 hr 36 min 4 sec) 
Heartbeat CPU 0 instructions: 480000001 cycles: 483041334 heartbeat IPC: 0.988635 cumulative IPC: 0.99215 (Simulation time: 0 hr 36 min 55 sec) 
Heartbeat CPU 0 instructions: 490000003 cycles: 492964272 heartbeat IPC: 1.00777 cumulative IPC: 0.992464 (Simulation time: 0 hr 37 min 46 sec) 
Heartbeat CPU 0 instructions: 500000000 cycles: 503054029 heartbeat IPC: 0.991104 cumulative IPC: 0.992437 (Simulation time: 0 hr 38 min 38 sec) 
Heartbeat CPU 0 instructions: 510000000 cycles: 513246352 heartbeat IPC: 0.981131 cumulative IPC: 0.992212 (Simulation time: 0 hr 39 min 31 sec) 
Heartbeat CPU 0 instructions: 520000003 cycles: 523473144 heartbeat IPC: 0.977824 cumulative IPC: 0.991931 (Simulation time: 0 hr 40 min 24 sec) 
Heartbeat CPU 0 instructions: 530000004 cycles: 533605415 heartbeat IPC: 0.986946 cumulative IPC: 0.991836 (Simulation time: 0 hr 41 min 18 sec) 
Heartbeat CPU 0 instructions: 540000004 cycles: 543842747 heartbeat IPC: 0.976817 cumulative IPC: 0.991553 (Simulation time: 0 hr 42 min 12 sec) 
Heartbeat CPU 0 instructions: 550000004 cycles: 553853703 heartbeat IPC: 0.998906 cumulative IPC: 0.991686 (Simulation time: 0 hr 43 min 5 sec) 
Heartbeat CPU 0 instructions: 560000004 cycles: 564018906 heartbeat IPC: 0.983748 cumulative IPC: 0.991543 (Simulation time: 0 hr 43 min 59 sec) 
Heartbeat CPU 0 instructions: 570000002 cycles: 574203072 heartbeat IPC: 0.981916 cumulative IPC: 0.991372 (Simulation time: 0 hr 44 min 53 sec) 
Heartbeat CPU 0 instructions: 580000002 cycles: 583994854 heartbeat IPC: 1.02126 cumulative IPC: 0.991874 (Simulation time: 0 hr 45 min 45 sec) 
Heartbeat CPU 0 instructions: 590000004 cycles: 593556289 heartbeat IPC: 1.04587 cumulative IPC: 0.992744 (Simulation time: 0 hr 46 min 38 sec) 
Heartbeat CPU 0 instructions: 600000000 cycles: 603305564 heartbeat IPC: 1.02572 cumulative IPC: 0.993277 (Simulation time: 0 hr 47 min 31 sec) 
Heartbeat CPU 0 instructions: 610000000 cycles: 613106695 heartbeat IPC: 1.02029 cumulative IPC: 0.993709 (Simulation time: 0 hr 48 min 24 sec) 
Heartbeat CPU 0 instructions: 620000003 cycles: 623016669 heartbeat IPC: 1.00908 cumulative IPC: 0.993954 (Simulation time: 0 hr 49 min 15 sec) 
Heartbeat CPU 0 instructions: 630000002 cycles: 633102202 heartbeat IPC: 0.991519 cumulative IPC: 0.993915 (Simulation time: 0 hr 50 min 9 sec) 
Heartbeat CPU 0 instructions: 640000003 cycles: 643389015 heartbeat IPC: 0.972118 cumulative IPC: 0.993566 (Simulation time: 0 hr 51 min 3 sec) 
Heartbeat CPU 0 instructions: 650000001 cycles: 653205397 heartbeat IPC: 1.01871 cumulative IPC: 0.993944 (Simulation time: 0 hr 51 min 56 sec) 
Heartbeat CPU 0 instructions: 660000000 cycles: 663305946 heartbeat IPC: 0.990045 cumulative IPC: 0.993885 (Simulation time: 0 hr 52 min 49 sec) 
Heartbeat CPU 0 instructions: 670000002 cycles: 673480882 heartbeat IPC: 0.982807 cumulative IPC: 0.993717 (Simulation time: 0 hr 53 min 42 sec) 
Heartbeat CPU 0 instructions: 680000003 cycles: 683639733 heartbeat IPC: 0.984363 cumulative IPC: 0.993578 (Simulation time: 0 hr 54 min 33 sec) 
Heartbeat CPU 0 instructions: 690000001 cycles: 693390992 heartbeat IPC: 1.02551 cumulative IPC: 0.994028 (Simulation time: 0 hr 55 min 27 sec) 
Heartbeat CPU 0 instructions: 700000004 cycles: 703288138 heartbeat IPC: 1.01039 cumulative IPC: 0.994258 (Simulation time: 0 hr 56 min 19 sec) 
Heartbeat CPU 0 instructions: 710000002 cycles: 713386804 heartbeat IPC: 0.99023 cumulative IPC: 0.994201 (Simulation time: 0 hr 57 min 12 sec) 
Heartbeat CPU 0 instructions: 720000000 cycles: 723592626 heartbeat IPC: 0.979833 cumulative IPC: 0.993998 (Simulation time: 0 hr 58 min 7 sec) 
Heartbeat CPU 0 instructions: 730000000 cycles: 733931592 heartbeat IPC: 0.967215 cumulative IPC: 0.993621 (Simulation time: 0 hr 59 min 2 sec) 
Heartbeat CPU 0 instructions: 740000001 cycles: 744058274 heartbeat IPC: 0.98749 cumulative IPC: 0.993537 (Simulation time: 0 hr 59 min 54 sec) 
Heartbeat CPU 0 instructions: 750000000 cycles: 753794938 heartbeat IPC: 1.02705 cumulative IPC: 0.99397 (Simulation time: 1 hr 0 min 48 sec) 
Heartbeat CPU 0 instructions: 760000001 cycles: 763918036 heartbeat IPC: 0.98784 cumulative IPC: 0.993889 (Simulation time: 1 hr 1 min 40 sec) 
Heartbeat CPU 0 instructions: 770000000 cycles: 774118969 heartbeat IPC: 0.980302 cumulative IPC: 0.99371 (Simulation time: 1 hr 2 min 31 sec) 
Heartbeat CPU 0 instructions: 780000003 cycles: 784187968 heartbeat IPC: 0.993148 cumulative IPC: 0.993703 (Simulation time: 1 hr 3 min 23 sec) 
Heartbeat CPU 0 instructions: 790000003 cycles: 794163733 heartbeat IPC: 1.00243 cumulative IPC: 0.993812 (Simulation time: 1 hr 4 min 13 sec) 
Heartbeat CPU 0 instructions: 800000000 cycles: 804116497 heartbeat IPC: 1.00475 cumulative IPC: 0.993948 (Simulation time: 1 hr 5 min 6 sec) 
Heartbeat CPU 0 instructions: 810000001 cycles: 814122601 heartbeat IPC: 0.99939 cumulative IPC: 0.994015 (Simulation time: 1 hr 6 min 0 sec) 
Heartbeat CPU 0 instructions: 820000000 cycles: 824288895 heartbeat IPC: 0.983643 cumulative IPC: 0.993887 (Simulation time: 1 hr 6 min 52 sec) 
Heartbeat CPU 0 instructions: 830000000 cycles: 834394772 heartbeat IPC: 0.989523 cumulative IPC: 0.993834 (Simulation time: 1 hr 7 min 43 sec) 
Heartbeat CPU 0 instructions: 840000004 cycles: 844295736 heartbeat IPC: 1.01 cumulative IPC: 0.994023 (Simulation time: 1 hr 8 min 34 sec) 
Heartbeat CPU 0 instructions: 850000001 cycles: 853910152 heartbeat IPC: 1.0401 cumulative IPC: 0.994542 (Simulation time: 1 hr 9 min 25 sec) 
Heartbeat CPU 0 instructions: 860000000 cycles: 863858143 heartbeat IPC: 1.00523 cumulative IPC: 0.994666 (Simulation time: 1 hr 10 min 15 sec) 
Heartbeat CPU 0 instructions: 870000001 cycles: 873991178 heartbeat IPC: 0.986871 cumulative IPC: 0.994575 (Simulation time: 1 hr 11 min 6 sec) 
Heartbeat CPU 0 instructions: 880000003 cycles: 884007310 heartbeat IPC: 0.99839 cumulative IPC: 0.994618 (Simulation time: 1 hr 11 min 57 sec) 
Heartbeat CPU 0 instructions: 890000000 cycles: 894076112 heartbeat IPC: 0.993167 cumulative IPC: 0.994602 (Simulation time: 1 hr 12 min 48 sec) 
Heartbeat CPU 0 instructions: 900000000 cycles: 904155930 heartbeat IPC: 0.992081 cumulative IPC: 0.994574 (Simulation time: 1 hr 13 min 41 sec) 
Heartbeat CPU 0 instructions: 910000003 cycles: 914142628 heartbeat IPC: 1.00133 cumulative IPC: 0.994648 (Simulation time: 1 hr 14 min 33 sec) 
Heartbeat CPU 0 instructions: 920000000 cycles: 924088693 heartbeat IPC: 1.00542 cumulative IPC: 0.994764 (Simulation time: 1 hr 15 min 25 sec) 
Heartbeat CPU 0 instructions: 930000004 cycles: 934420146 heartbeat IPC: 0.967918 cumulative IPC: 0.994467 (Simulation time: 1 hr 16 min 17 sec) 
Heartbeat CPU 0 instructions: 940000002 cycles: 944622176 heartbeat IPC: 0.980197 cumulative IPC: 0.994313 (Simulation time: 1 hr 17 min 9 sec) 
Heartbeat CPU 0 instructions: 950000000 cycles: 954814698 heartbeat IPC: 0.981111 cumulative IPC: 0.994172 (Simulation time: 1 hr 18 min 2 sec) 
Heartbeat CPU 0 instructions: 960000002 cycles: 965018595 heartbeat IPC: 0.980018 cumulative IPC: 0.994022 (Simulation time: 1 hr 18 min 55 sec) 
Heartbeat CPU 0 instructions: 970000001 cycles: 975124082 heartbeat IPC: 0.989561 cumulative IPC: 0.993976 (Simulation time: 1 hr 19 min 48 sec) 
Heartbeat CPU 0 instructions: 980000002 cycles: 985342191 heartbeat IPC: 0.978655 cumulative IPC: 0.993817 (Simulation time: 1 hr 20 min 41 sec) 
Heartbeat CPU 0 instructions: 990000002 cycles: 995449988 heartbeat IPC: 0.989335 cumulative IPC: 0.993771 (Simulation time: 1 hr 21 min 34 sec) 
Heartbeat CPU 0 instructions: 1000000003 cycles: 1005685279 heartbeat IPC: 0.977012 cumulative IPC: 0.993601 (Simulation time: 1 hr 22 min 24 sec) 
Finished CPU 0 instructions: 1000000000 cycles: 1006455881 cumulative IPC: 0.993586 (Simulation time: 1 hr 22 min 29 sec) 

ChampSim completed all CPUs

Region of Interest Statistics

CPU 0 cumulative IPC: 0.993586 instructions: 1000000000 cycles: 1006455881
cpu0_DTLB TOTAL     ACCESS:  209946325  HIT:  208189524  MISS:    1756801
cpu0_DTLB LOAD      ACCESS:  165736162  HIT:  164233767  MISS:    1502395
cpu0_DTLB RFO       ACCESS:   44210163  HIT:   43955757  MISS:     254406
cpu0_DTLB PREFETCH  ACCESS:          0  HIT:          0  MISS:          0
cpu0_DTLB WRITEBACK ACCESS:          0  HIT:          0  MISS:          0
cpu0_DTLB TRANSLATION ACCESS:          0  HIT:          0  MISS:          0
cpu0_DTLB PREFETCH  REQUESTED:          0  ISSUED:          0  USEFUL:          0  USELESS:          0
cpu0_DTLB AVERAGE MISS LATENCY: 14.5149 cycles
cpu0_ITLB TOTAL     ACCESS:   88812671  HIT:   88812655  MISS:         16
cpu0_ITLB LOAD      ACCESS:   88812671  HIT:   88812655  MISS:         16
cpu0_ITLB RFO       ACCESS:          0  HIT:          0  MISS:          0
cpu0_ITLB PREFETCH  ACCESS:          0  HIT:          0  MISS:          0
cpu0_ITLB WRITEBACK ACCESS:          0  HIT:          0  MISS:          0
cpu0_ITLB TRANSLATION ACCESS:          0  HIT:          0  MISS:          0
cpu0_ITLB PREFETCH  REQUESTED:          0  ISSUED:          0  USEFUL:          0  USELESS:          0
cpu0_ITLB AVERAGE MISS LATENCY: 217.625 cycles
cpu0_L1I TOTAL     ACCESS:   59273428  HIT:   59258152  MISS:      15276
cpu0_L1I LOAD      ACCESS:   59273428  HIT:   59258152  MISS:      15276
cpu0_L1I RFO       ACCESS:          0  HIT:          0  MISS:          0
cpu0_L1I PREFETCH  ACCESS:          0  HIT:          0  MISS:          0
cpu0_L1I WRITEBACK ACCESS:          0  HIT:          0  MISS:          0
cpu0_L1I TRANSLATION ACCESS:          0  HIT:          0  MISS:          0
cpu0_L1I PREFETCH  REQUESTED:          0  ISSUED:          0  USEFUL:          0  USELESS:          0
cpu0_L1I AVERAGE MISS LATENCY: 26.9293 cycles
cpu0_STLB TOTAL     ACCESS:    1756817  HIT:    1455099  MISS:     301718
cpu0_STLB LOAD      ACCESS:    1502411  HIT:    1201884  MISS:     300527
cpu0_STLB RFO       ACCESS:     254406  HIT:     253215  MISS:       1191
cpu0_STLB PREFETCH  ACCESS:          0  HIT:          0  MISS:          0
cpu0_STLB WRITEBACK ACCESS:          0  HIT:          0  MISS:          0
cpu0_STLB TRANSLATION ACCESS:          0  HIT:          0  MISS:          0
cpu0_STLB PREFETCH  REQUESTED:          0  ISSUED:          0  USEFUL:          0  USELESS:          0
cpu0_STLB AVERAGE MISS LATENCY: 32.0418 cycles
cpu0_L1D TOTAL     ACCESS:  430671871  HIT:  427578575  MISS:    3093296
cpu0_L1D LOAD      ACCESS:  177770645  HIT:  176545648  MISS:    1224997
cpu0_L1D RFO       ACCESS:   76843693  HIT:   76326755  MISS:     516938
cpu0_L1D PREFETCH  ACCESS:  175755817  HIT:  174422240  MISS:    1333577
cpu0_L1D WRITEBACK ACCESS:          0  HIT:          0  MISS:          0
cpu0_L1D TRANSLATION ACCESS:     301716  HIT:     283932  MISS:      17784
cpu0_L1D PREFETCH  REQUESTED:  177818176  ISSUED:  175865074  USEFUL:     813216  USELESS:     539144
cpu0_L1D AVERAGE MISS LATENCY: 84.996 cycles
cpu0_L2C TOTAL     ACCESS:    4184757  HIT:    3442715  MISS:     742042
cpu0_L2C LOAD      ACCESS:    1223252  HIT:     863584  MISS:     359668
cpu0_L2C RFO       ACCESS:     513184  HIT:     501118  MISS:      12066
cpu0_L2C PREFETCH  ACCESS:    1446261  HIT:    1078653  MISS:     367608
cpu0_L2C WRITEBACK ACCESS:     984276  HIT:     981870  MISS:       2406
cpu0_L2C TRANSLATION ACCESS:      17784  HIT:      17490  MISS:        294
cpu0_L2C PREFETCH  REQUESTED:      96286  ISSUED:      94589  USEFUL:       4307  USELESS:       3608
cpu0_L2C AVERAGE MISS LATENCY: 301.445 cycles
LLC TOTAL     ACCESS:    1069162  HIT:     405305  MISS:     663857
LLC LOAD      ACCESS:     359668  HIT:      38653  MISS:     321015
LLC RFO       ACCESS:      12064  HIT:      10931  MISS:       1133
LLC PREFETCH  ACCESS:     367606  HIT:      47946  MISS:     319660
LLC WRITEBACK ACCESS:     329530  HIT:     307508  MISS:      22022
LLC TRANSLATION ACCESS:        294  HIT:        267  MISS:         27
LLC PREFETCH  REQUESTED:          0  ISSUED:          0  USEFUL:          0  USELESS:          0
LLC AVERAGE MISS LATENCY: 306.866 cycles

DRAM Statistics
 CHANNEL 0
 RQ ROW_BUFFER_HIT:        290  ROW_BUFFER_MISS:     641545
 DBUS AVG_CONGESTED_CYCLE:    3.51598
 WQ ROW_BUFFER_HIT:      42940  ROW_BUFFER_MISS:     247739  FULL:          0


CPU 0 Branch Prediction Accuracy: 90.3752% MPKI: 21.3013 Average ROB Occupancy at Mispredict: 24.5747
Branch type MPKI
BRANCH_DIRECT_JUMP: 0.000132
BRANCH_INDIRECT: 0.948516
BRANCH_CONDITIONAL: 19.9207
BRANCH_DIRECT_CALL: 6.1e-05
BRANCH_INDIRECT_CALL: 0.431806
BRANCH_RETURN: 6.6e-05

