
*** ChampSim Multicore Out-of-Order Simulator ***

Warmup Instructions: 1000000
Simulation Instructions: 1000000000
Number of CPUs: 1
Off-chip DRAM Size: 4 GiB Channels: 1 Width: 64-bit Data Rate: 3200 MT/s

VirtualMemory physical capacity: 8588881920 num_ppages: 2096895
VirtualMemory page size: 4096 log2_page_size: 12

CPU 0 runs tracer/pin/traces/spec2k17/631.deepsjeng_s-928B.champsimtrace.xz
Basic BTB sets: 1024 ways: 8 indirect buffer size: 4096 RAS size: 64
cpu0_L1D next line prefetcher
cpu0_L2C IP-based stride prefetcher
WARNING: The extended signature CACHE::prefetch_line(ip, base_addr, pf_addr, fill_this_level, prefetch_metadata) is deprecated.
WARNING: Use CACHE::prefetch_line(pf_addr, fill_this_level, prefetch_metadata) instead.

Warmup complete CPU 0 instructions: 1000001 cycles: 250362 (Simulation time: 0 hr 0 min 3 sec) 

Heartbeat CPU 0 instructions: 10000003 cycles: 6817166 heartbeat IPC: 1.46689 cumulative IPC: 1.37053 (Simulation time: 0 hr 0 min 46 sec) 
Heartbeat CPU 0 instructions: 20000001 cycles: 14128080 heartbeat IPC: 1.36782 cumulative IPC: 1.3691 (Simulation time: 0 hr 1 min 37 sec) 
Heartbeat CPU 0 instructions: 30000001 cycles: 21344078 heartbeat IPC: 1.38581 cumulative IPC: 1.37482 (Simulation time: 0 hr 2 min 27 sec) 
Heartbeat CPU 0 instructions: 40000004 cycles: 28512471 heartbeat IPC: 1.39501 cumulative IPC: 1.37994 (Simulation time: 0 hr 3 min 18 sec) 
Heartbeat CPU 0 instructions: 50000004 cycles: 35652536 heartbeat IPC: 1.40055 cumulative IPC: 1.3841 (Simulation time: 0 hr 4 min 10 sec) 
Heartbeat CPU 0 instructions: 60000000 cycles: 42916930 heartbeat IPC: 1.37658 cumulative IPC: 1.38282 (Simulation time: 0 hr 5 min 2 sec) 
Heartbeat CPU 0 instructions: 70000002 cycles: 50102524 heartbeat IPC: 1.39167 cumulative IPC: 1.38409 (Simulation time: 0 hr 5 min 54 sec) 
Heartbeat CPU 0 instructions: 80000002 cycles: 57400512 heartbeat IPC: 1.37024 cumulative IPC: 1.38232 (Simulation time: 0 hr 6 min 48 sec) 
Heartbeat CPU 0 instructions: 90000001 cycles: 64587268 heartbeat IPC: 1.39145 cumulative IPC: 1.38334 (Simulation time: 0 hr 7 min 42 sec) 
Heartbeat CPU 0 instructions: 100000004 cycles: 71840731 heartbeat IPC: 1.37865 cumulative IPC: 1.38287 (Simulation time: 0 hr 8 min 37 sec) 
Heartbeat CPU 0 instructions: 110000000 cycles: 79072820 heartbeat IPC: 1.38273 cumulative IPC: 1.38285 (Simulation time: 0 hr 9 min 31 sec) 
Heartbeat CPU 0 instructions: 120000001 cycles: 86153277 heartbeat IPC: 1.41234 cumulative IPC: 1.38528 (Simulation time: 0 hr 10 min 25 sec) 
Heartbeat CPU 0 instructions: 130000003 cycles: 93477449 heartbeat IPC: 1.36534 cumulative IPC: 1.38372 (Simulation time: 0 hr 11 min 20 sec) 
Heartbeat CPU 0 instructions: 140000000 cycles: 100647019 heartbeat IPC: 1.39478 cumulative IPC: 1.38451 (Simulation time: 0 hr 12 min 14 sec) 
Heartbeat CPU 0 instructions: 150000002 cycles: 107703970 heartbeat IPC: 1.41704 cumulative IPC: 1.38664 (Simulation time: 0 hr 13 min 9 sec) 
Heartbeat CPU 0 instructions: 160000003 cycles: 114943755 heartbeat IPC: 1.38126 cumulative IPC: 1.3863 (Simulation time: 0 hr 14 min 3 sec) 
Heartbeat CPU 0 instructions: 170000001 cycles: 122154760 heartbeat IPC: 1.38677 cumulative IPC: 1.38633 (Simulation time: 0 hr 14 min 58 sec) 
Heartbeat CPU 0 instructions: 180000004 cycles: 129365843 heartbeat IPC: 1.38675 cumulative IPC: 1.38636 (Simulation time: 0 hr 15 min 53 sec) 
Heartbeat CPU 0 instructions: 190000004 cycles: 136689774 heartbeat IPC: 1.36539 cumulative IPC: 1.38523 (Simulation time: 0 hr 16 min 49 sec) 
Heartbeat CPU 0 instructions: 200000001 cycles: 144064630 heartbeat IPC: 1.35596 cumulative IPC: 1.38373 (Simulation time: 0 hr 17 min 45 sec) 
Heartbeat CPU 0 instructions: 210000000 cycles: 151126940 heartbeat IPC: 1.41597 cumulative IPC: 1.38524 (Simulation time: 0 hr 18 min 40 sec) 
Heartbeat CPU 0 instructions: 220000003 cycles: 158407528 heartbeat IPC: 1.37352 cumulative IPC: 1.3847 (Simulation time: 0 hr 19 min 34 sec) 
Heartbeat CPU 0 instructions: 230000000 cycles: 165762922 heartbeat IPC: 1.35955 cumulative IPC: 1.38358 (Simulation time: 0 hr 20 min 29 sec) 
Heartbeat CPU 0 instructions: 240000003 cycles: 172889235 heartbeat IPC: 1.40325 cumulative IPC: 1.38439 (Simulation time: 0 hr 21 min 25 sec) 
Heartbeat CPU 0 instructions: 250000000 cycles: 179986933 heartbeat IPC: 1.40891 cumulative IPC: 1.38536 (Simulation time: 0 hr 22 min 20 sec) 
Heartbeat CPU 0 instructions: 260000000 cycles: 187139889 heartbeat IPC: 1.39802 cumulative IPC: 1.38585 (Simulation time: 0 hr 23 min 15 sec) 
Heartbeat CPU 0 instructions: 270000002 cycles: 194242418 heartbeat IPC: 1.40795 cumulative IPC: 1.38665 (Simulation time: 0 hr 24 min 10 sec) 
Heartbeat CPU 0 instructions: 280000001 cycles: 201429463 heartbeat IPC: 1.39139 cumulative IPC: 1.38682 (Simulation time: 0 hr 25 min 5 sec) 
Heartbeat CPU 0 instructions: 290000000 cycles: 208585251 heartbeat IPC: 1.39747 cumulative IPC: 1.38719 (Simulation time: 0 hr 26 min 0 sec) 
Heartbeat CPU 0 instructions: 300000002 cycles: 215704808 heartbeat IPC: 1.40458 cumulative IPC: 1.38776 (Simulation time: 0 hr 26 min 53 sec) 
Heartbeat CPU 0 instructions: 310000000 cycles: 222917945 heartbeat IPC: 1.38636 cumulative IPC: 1.38772 (Simulation time: 0 hr 27 min 47 sec) 
Heartbeat CPU 0 instructions: 320000000 cycles: 230038405 heartbeat IPC: 1.4044 cumulative IPC: 1.38824 (Simulation time: 0 hr 28 min 42 sec) 
Heartbeat CPU 0 instructions: 330000000 cycles: 237271327 heartbeat IPC: 1.38257 cumulative IPC: 1.38806 (Simulation time: 0 hr 29 min 37 sec) 
Heartbeat CPU 0 instructions: 340000004 cycles: 244309845 heartbeat IPC: 1.42075 cumulative IPC: 1.38901 (Simulation time: 0 hr 30 min 32 sec) 
Heartbeat CPU 0 instructions: 350000002 cycles: 251365544 heartbeat IPC: 1.41729 cumulative IPC: 1.3898 (Simulation time: 0 hr 31 min 26 sec) 
Heartbeat CPU 0 instructions: 360000000 cycles: 258370302 heartbeat IPC: 1.4276 cumulative IPC: 1.39083 (Simulation time: 0 hr 32 min 20 sec) 
Heartbeat CPU 0 instructions: 370000002 cycles: 265406651 heartbeat IPC: 1.42119 cumulative IPC: 1.39163 (Simulation time: 0 hr 33 min 16 sec) 
Heartbeat CPU 0 instructions: 380000000 cycles: 272406839 heartbeat IPC: 1.42853 cumulative IPC: 1.39258 (Simulation time: 0 hr 34 min 9 sec) 
Heartbeat CPU 0 instructions: 390000000 cycles: 279587416 heartbeat IPC: 1.39265 cumulative IPC: 1.39258 (Simulation time: 0 hr 35 min 4 sec) 
Heartbeat CPU 0 instructions: 400000001 cycles: 286753108 heartbeat IPC: 1.39554 cumulative IPC: 1.39266 (Simulation time: 0 hr 35 min 58 sec) 
Heartbeat CPU 0 instructions: 410000003 cycles: 294107555 heartbeat IPC: 1.35972 cumulative IPC: 1.39183 (Simulation time: 0 hr 36 min 54 sec) 
Heartbeat CPU 0 instructions: 420000000 cycles: 301234428 heartbeat IPC: 1.40314 cumulative IPC: 1.3921 (Simulation time: 0 hr 37 min 49 sec) 
Heartbeat CPU 0 instructions: 430000004 cycles: 308284783 heartbeat IPC: 1.41837 cumulative IPC: 1.3927 (Simulation time: 0 hr 38 min 44 sec) 
Heartbeat CPU 0 instructions: 440000000 cycles: 315352688 heartbeat IPC: 1.41485 cumulative IPC: 1.3932 (Simulation time: 0 hr 39 min 37 sec) 
Heartbeat CPU 0 instructions: 450000003 cycles: 322481898 heartbeat IPC: 1.40268 cumulative IPC: 1.39341 (Simulation time: 0 hr 40 min 30 sec) 
Heartbeat CPU 0 instructions: 460000000 cycles: 329582569 heartbeat IPC: 1.40832 cumulative IPC: 1.39373 (Simulation time: 0 hr 41 min 23 sec) 
Heartbeat CPU 0 instructions: 470000000 cycles: 336557243 heartbeat IPC: 1.43376 cumulative IPC: 1.39456 (Simulation time: 0 hr 42 min 17 sec) 
Heartbeat CPU 0 instructions: 480000002 cycles: 343555603 heartbeat IPC: 1.42891 cumulative IPC: 1.39526 (Simulation time: 0 hr 43 min 10 sec) 
Heartbeat CPU 0 instructions: 490000003 cycles: 350541574 heartbeat IPC: 1.43144 cumulative IPC: 1.39598 (Simulation time: 0 hr 44 min 4 sec) 
Heartbeat CPU 0 instructions: 500000002 cycles: 357636709 heartbeat IPC: 1.40942 cumulative IPC: 1.39625 (Simulation time: 0 hr 44 min 58 sec) 
Heartbeat CPU 0 instructions: 510000004 cycles: 364644342 heartbeat IPC: 1.42702 cumulative IPC: 1.39684 (Simulation time: 0 hr 45 min 52 sec) 
Heartbeat CPU 0 instructions: 520000001 cycles: 371643344 heartbeat IPC: 1.42877 cumulative IPC: 1.39744 (Simulation time: 0 hr 46 min 48 sec) 
Heartbeat CPU 0 instructions: 530000003 cycles: 378693963 heartbeat IPC: 1.41832 cumulative IPC: 1.39783 (Simulation time: 0 hr 47 min 42 sec) 
Heartbeat CPU 0 instructions: 540000000 cycles: 385703926 heartbeat IPC: 1.42654 cumulative IPC: 1.39835 (Simulation time: 0 hr 48 min 35 sec) 
Heartbeat CPU 0 instructions: 550000001 cycles: 392616361 heartbeat IPC: 1.44667 cumulative IPC: 1.3992 (Simulation time: 0 hr 49 min 29 sec) 
Heartbeat CPU 0 instructions: 560000003 cycles: 399590514 heartbeat IPC: 1.43387 cumulative IPC: 1.39981 (Simulation time: 0 hr 50 min 22 sec) 
Heartbeat CPU 0 instructions: 570000004 cycles: 406446635 heartbeat IPC: 1.45855 cumulative IPC: 1.4008 (Simulation time: 0 hr 51 min 15 sec) 
Heartbeat CPU 0 instructions: 580000000 cycles: 413451984 heartbeat IPC: 1.42748 cumulative IPC: 1.40125 (Simulation time: 0 hr 52 min 9 sec) 
Heartbeat CPU 0 instructions: 590000000 cycles: 420694289 heartbeat IPC: 1.38078 cumulative IPC: 1.4009 (Simulation time: 0 hr 53 min 3 sec) 
Heartbeat CPU 0 instructions: 600000000 cycles: 427810711 heartbeat IPC: 1.4052 cumulative IPC: 1.40097 (Simulation time: 0 hr 53 min 56 sec) 
Heartbeat CPU 0 instructions: 610000003 cycles: 434983836 heartbeat IPC: 1.39409 cumulative IPC: 1.40086 (Simulation time: 0 hr 54 min 50 sec) 
Heartbeat CPU 0 instructions: 620000003 cycles: 442044091 heartbeat IPC: 1.41638 cumulative IPC: 1.40111 (Simulation time: 0 hr 55 min 45 sec) 
Heartbeat CPU 0 instructions: 630000000 cycles: 449089145 heartbeat IPC: 1.41944 cumulative IPC: 1.40139 (Simulation time: 0 hr 56 min 39 sec) 
Heartbeat CPU 0 instructions: 640000001 cycles: 456140417 heartbeat IPC: 1.41818 cumulative IPC: 1.40165 (Simulation time: 0 hr 57 min 33 sec) 
Heartbeat CPU 0 instructions: 650000000 cycles: 463225191 heartbeat IPC: 1.41148 cumulative IPC: 1.4018 (Simulation time: 0 hr 58 min 27 sec) 
Heartbeat CPU 0 instructions: 660000002 cycles: 470212173 heartbeat IPC: 1.43123 cumulative IPC: 1.40224 (Simulation time: 0 hr 59 min 22 sec) 
Heartbeat CPU 0 instructions: 670000001 cycles: 477049564 heartbeat IPC: 1.46255 cumulative IPC: 1.40311 (Simulation time: 1 hr 0 min 14 sec) 
Heartbeat CPU 0 instructions: 680000004 cycles: 483962706 heartbeat IPC: 1.44652 cumulative IPC: 1.40373 (Simulation time: 1 hr 1 min 8 sec) 
Heartbeat CPU 0 instructions: 690000000 cycles: 491148398 heartbeat IPC: 1.39165 cumulative IPC: 1.40355 (Simulation time: 1 hr 2 min 4 sec) 
Heartbeat CPU 0 instructions: 700000002 cycles: 498309454 heartbeat IPC: 1.39644 cumulative IPC: 1.40345 (Simulation time: 1 hr 2 min 56 sec) 
Heartbeat CPU 0 instructions: 710000004 cycles: 505286708 heartbeat IPC: 1.43323 cumulative IPC: 1.40386 (Simulation time: 1 hr 3 min 51 sec) 
Heartbeat CPU 0 instructions: 720000001 cycles: 512184197 heartbeat IPC: 1.4498 cumulative IPC: 1.40448 (Simulation time: 1 hr 4 min 44 sec) 
Heartbeat CPU 0 instructions: 730000000 cycles: 519150776 heartbeat IPC: 1.43542 cumulative IPC: 1.40489 (Simulation time: 1 hr 5 min 37 sec) 
Heartbeat CPU 0 instructions: 740000000 cycles: 526021908 heartbeat IPC: 1.45536 cumulative IPC: 1.40555 (Simulation time: 1 hr 6 min 30 sec) 
Heartbeat CPU 0 instructions: 750000000 cycles: 533173021 heartbeat IPC: 1.39838 cumulative IPC: 1.40546 (Simulation time: 1 hr 7 min 24 sec) 
Heartbeat CPU 0 instructions: 760000001 cycles: 540261777 heartbeat IPC: 1.41068 cumulative IPC: 1.40553 (Simulation time: 1 hr 8 min 17 sec) 
Heartbeat CPU 0 instructions: 770000001 cycles: 547436579 heartbeat IPC: 1.39377 cumulative IPC: 1.40537 (Simulation time: 1 hr 9 min 10 sec) 
Heartbeat CPU 0 instructions: 780000003 cycles: 554676470 heartbeat IPC: 1.38124 cumulative IPC: 1.40506 (Simulation time: 1 hr 10 min 3 sec) 
Heartbeat CPU 0 instructions: 790000001 cycles: 561799178 heartbeat IPC: 1.40396 cumulative IPC: 1.40504 (Simulation time: 1 hr 10 min 55 sec) 
Heartbeat CPU 0 instructions: 800000002 cycles: 568834836 heartbeat IPC: 1.42133 cumulative IPC: 1.40524 (Simulation time: 1 hr 11 min 48 sec) 
Heartbeat CPU 0 instructions: 810000000 cycles: 575821745 heartbeat IPC: 1.43125 cumulative IPC: 1.40556 (Simulation time: 1 hr 12 min 40 sec) 
Heartbeat CPU 0 instructions: 820000000 cycles: 582637676 heartbeat IPC: 1.46715 cumulative IPC: 1.40628 (Simulation time: 1 hr 13 min 31 sec) 
Heartbeat CPU 0 instructions: 830000000 cycles: 589726647 heartbeat IPC: 1.41064 cumulative IPC: 1.40633 (Simulation time: 1 hr 14 min 23 sec) 
Heartbeat CPU 0 instructions: 840000003 cycles: 596650574 heartbeat IPC: 1.44427 cumulative IPC: 1.40677 (Simulation time: 1 hr 15 min 14 sec) 
Heartbeat CPU 0 instructions: 850000000 cycles: 603798287 heartbeat IPC: 1.39905 cumulative IPC: 1.40668 (Simulation time: 1 hr 16 min 3 sec) 
Heartbeat CPU 0 instructions: 860000000 cycles: 610831733 heartbeat IPC: 1.42178 cumulative IPC: 1.40686 (Simulation time: 1 hr 16 min 53 sec) 
Heartbeat CPU 0 instructions: 870000001 cycles: 617666465 heartbeat IPC: 1.46312 cumulative IPC: 1.40748 (Simulation time: 1 hr 17 min 43 sec) 
Heartbeat CPU 0 instructions: 880000003 cycles: 624741609 heartbeat IPC: 1.4134 cumulative IPC: 1.40755 (Simulation time: 1 hr 18 min 33 sec) 
Heartbeat CPU 0 instructions: 890000002 cycles: 631845863 heartbeat IPC: 1.40761 cumulative IPC: 1.40755 (Simulation time: 1 hr 19 min 22 sec) 
Heartbeat CPU 0 instructions: 900000000 cycles: 638925979 heartbeat IPC: 1.41241 cumulative IPC: 1.4076 (Simulation time: 1 hr 20 min 10 sec) 
Heartbeat CPU 0 instructions: 910000001 cycles: 645970291 heartbeat IPC: 1.41959 cumulative IPC: 1.40773 (Simulation time: 1 hr 20 min 59 sec) 
Heartbeat CPU 0 instructions: 920000004 cycles: 652942141 heartbeat IPC: 1.43434 cumulative IPC: 1.40802 (Simulation time: 1 hr 21 min 49 sec) 
Heartbeat CPU 0 instructions: 930000002 cycles: 659858029 heartbeat IPC: 1.44595 cumulative IPC: 1.40841 (Simulation time: 1 hr 22 min 37 sec) 
Heartbeat CPU 0 instructions: 940000002 cycles: 666653393 heartbeat IPC: 1.47159 cumulative IPC: 1.40906 (Simulation time: 1 hr 23 min 23 sec) 
Heartbeat CPU 0 instructions: 950000000 cycles: 673474086 heartbeat IPC: 1.46613 cumulative IPC: 1.40964 (Simulation time: 1 hr 24 min 10 sec) 
Heartbeat CPU 0 instructions: 960000001 cycles: 680393720 heartbeat IPC: 1.44516 cumulative IPC: 1.41 (Simulation time: 1 hr 24 min 58 sec) 
Heartbeat CPU 0 instructions: 970000002 cycles: 687241895 heartbeat IPC: 1.46024 cumulative IPC: 1.4105 (Simulation time: 1 hr 25 min 45 sec) 
Heartbeat CPU 0 instructions: 980000001 cycles: 694234606 heartbeat IPC: 1.43006 cumulative IPC: 1.41069 (Simulation time: 1 hr 26 min 32 sec) 
Heartbeat CPU 0 instructions: 990000003 cycles: 701179411 heartbeat IPC: 1.43993 cumulative IPC: 1.41098 (Simulation time: 1 hr 27 min 19 sec) 
Heartbeat CPU 0 instructions: 1000000003 cycles: 708525510 heartbeat IPC: 1.36127 cumulative IPC: 1.41047 (Simulation time: 1 hr 28 min 6 sec) 
Finished CPU 0 instructions: 1000000003 cycles: 708972976 cumulative IPC: 1.41049 (Simulation time: 1 hr 28 min 10 sec) 

ChampSim completed all CPUs

Region of Interest Statistics

CPU 0 cumulative IPC: 1.41049 instructions: 1000000003 cycles: 708972976
cpu0_DTLB TOTAL     ACCESS:  182917643  HIT:  182655889  MISS:     261754
cpu0_DTLB LOAD      ACCESS:  127485072  HIT:  127234120  MISS:     250952
cpu0_DTLB RFO       ACCESS:   55432571  HIT:   55421769  MISS:      10802
cpu0_DTLB PREFETCH  ACCESS:          0  HIT:          0  MISS:          0
cpu0_DTLB WRITEBACK ACCESS:          0  HIT:          0  MISS:          0
cpu0_DTLB TRANSLATION ACCESS:          0  HIT:          0  MISS:          0
cpu0_DTLB PREFETCH  REQUESTED:          0  ISSUED:          0  USEFUL:          0  USELESS:          0
cpu0_DTLB AVERAGE MISS LATENCY: 136.379 cycles
cpu0_ITLB TOTAL     ACCESS:   71262692  HIT:   71262690  MISS:          2
cpu0_ITLB LOAD      ACCESS:   71262692  HIT:   71262690  MISS:          2
cpu0_ITLB RFO       ACCESS:          0  HIT:          0  MISS:          0
cpu0_ITLB PREFETCH  ACCESS:          0  HIT:          0  MISS:          0
cpu0_ITLB WRITEBACK ACCESS:          0  HIT:          0  MISS:          0
cpu0_ITLB TRANSLATION ACCESS:          0  HIT:          0  MISS:          0
cpu0_ITLB PREFETCH  REQUESTED:          0  ISSUED:          0  USEFUL:          0  USELESS:          0
cpu0_ITLB AVERAGE MISS LATENCY: 222.5 cycles
cpu0_L1I TOTAL     ACCESS:  105228048  HIT:  104602538  MISS:     625510
cpu0_L1I LOAD      ACCESS:  105228048  HIT:  104602538  MISS:     625510
cpu0_L1I RFO       ACCESS:          0  HIT:          0  MISS:          0
cpu0_L1I PREFETCH  ACCESS:          0  HIT:          0  MISS:          0
cpu0_L1I WRITEBACK ACCESS:          0  HIT:          0  MISS:          0
cpu0_L1I TRANSLATION ACCESS:          0  HIT:          0  MISS:          0
cpu0_L1I PREFETCH  REQUESTED:          0  ISSUED:          0  USEFUL:          0  USELESS:          0
cpu0_L1I AVERAGE MISS LATENCY: 13.7324 cycles
cpu0_STLB TOTAL     ACCESS:     261756  HIT:      90417  MISS:     171339
cpu0_STLB LOAD      ACCESS:     250954  HIT:      79847  MISS:     171107
cpu0_STLB RFO       ACCESS:      10802  HIT:      10570  MISS:        232
cpu0_STLB PREFETCH  ACCESS:          0  HIT:          0  MISS:          0
cpu0_STLB WRITEBACK ACCESS:          0  HIT:          0  MISS:          0
cpu0_STLB TRANSLATION ACCESS:          0  HIT:          0  MISS:          0
cpu0_STLB PREFETCH  REQUESTED:          0  ISSUED:          0  USEFUL:          0  USELESS:          0
cpu0_STLB AVERAGE MISS LATENCY: 194.597 cycles
cpu0_L1D TOTAL     ACCESS:  421285225  HIT:  418225456  MISS:    3059769
cpu0_L1D LOAD      ACCESS:  153617160  HIT:  152551761  MISS:    1065399
cpu0_L1D RFO       ACCESS:  115334476  HIT:  114746750  MISS:     587726
cpu0_L1D PREFETCH  ACCESS:  152163441  HIT:  150919725  MISS:    1243716
cpu0_L1D WRITEBACK ACCESS:          0  HIT:          0  MISS:          0
cpu0_L1D TRANSLATION ACCESS:     170148  HIT:       7220  MISS:     162928
cpu0_L1D PREFETCH  REQUESTED:  153727126  ISSUED:  152547485  USEFUL:    1094052  USELESS:     183878
cpu0_L1D AVERAGE MISS LATENCY: 59.5325 cycles
cpu0_L2C TOTAL     ACCESS:    4723052  HIT:    4180460  MISS:     542592
cpu0_L2C LOAD      ACCESS:    1662469  HIT:    1381053  MISS:     281416
cpu0_L2C RFO       ACCESS:     581676  HIT:     561651  MISS:      20025
cpu0_L2C PREFETCH  ACCESS:    1336363  HIT:    1120620  MISS:     215743
cpu0_L2C WRITEBACK ACCESS:     979616  HIT:     978789  MISS:        827
cpu0_L2C TRANSLATION ACCESS:     162928  HIT:     138347  MISS:      24581
cpu0_L2C PREFETCH  REQUESTED:      59141  ISSUED:      59029  USEFUL:       4084  USELESS:       5210
cpu0_L2C AVERAGE MISS LATENCY: 266.995 cycles
LLC TOTAL     ACCESS:     757581  HIT:     329866  MISS:     427715
LLC LOAD      ACCESS:     281416  HIT:      37464  MISS:     243952
LLC RFO       ACCESS:      20025  HIT:      18265  MISS:       1760
LLC PREFETCH  ACCESS:     215743  HIT:      37760  MISS:     177983
LLC WRITEBACK ACCESS:     215816  HIT:     212032  MISS:       3784
LLC TRANSLATION ACCESS:      24581  HIT:      24345  MISS:        236
LLC PREFETCH  REQUESTED:          0  ISSUED:          0  USEFUL:          0  USELESS:          0
LLC AVERAGE MISS LATENCY: 304.506 cycles

DRAM Statistics
 CHANNEL 0
 RQ ROW_BUFFER_HIT:        386  ROW_BUFFER_MISS:     423545
 DBUS AVG_CONGESTED_CYCLE:    3.77874
 WQ ROW_BUFFER_HIT:      17715  ROW_BUFFER_MISS:     151014  FULL:          0


CPU 0 Branch Prediction Accuracy: 93.4819% MPKI: 9.64201 Average ROB Occupancy at Mispredict: 41.9154
Branch type MPKI
BRANCH_DIRECT_JUMP: 8.5e-05
BRANCH_INDIRECT: 0.001932
BRANCH_CONDITIONAL: 9.63988
BRANCH_DIRECT_CALL: 5.9e-05
BRANCH_INDIRECT_CALL: 0
BRANCH_RETURN: 5.7e-05

