
*** ChampSim Multicore Out-of-Order Simulator ***

Warmup Instructions: 1000000
Simulation Instructions: 1000000000
Number of CPUs: 1
Off-chip DRAM Size: 4 GiB Channels: 1 Width: 64-bit Data Rate: 3200 MT/s

VirtualMemory physical capacity: 8588881920 num_ppages: 2096895
VirtualMemory page size: 4096 log2_page_size: 12

CPU 0 runs tracer/pin/traces/spec2k6/437.leslie3d-273B.champsimtrace.xz
Basic BTB sets: 1024 ways: 8 indirect buffer size: 4096 RAS size: 64
cpu0_L1D next line prefetcher
cpu0_L2C IP-based stride prefetcher
WARNING: The extended signature CACHE::prefetch_line(ip, base_addr, pf_addr, fill_this_level, prefetch_metadata) is deprecated.
WARNING: Use CACHE::prefetch_line(pf_addr, fill_this_level, prefetch_metadata) instead.

Warmup complete CPU 0 instructions: 1000004 cycles: 379297 (Simulation time: 0 hr 0 min 3 sec) 

Heartbeat CPU 0 instructions: 10000004 cycles: 9948081 heartbeat IPC: 1.00522 cumulative IPC: 0.940558 (Simulation time: 0 hr 1 min 33 sec) 
Heartbeat CPU 0 instructions: 20000004 cycles: 20965636 heartbeat IPC: 0.907642 cumulative IPC: 0.922942 (Simulation time: 0 hr 3 min 6 sec) 
Heartbeat CPU 0 instructions: 30000002 cycles: 33083649 heartbeat IPC: 0.825218 cumulative IPC: 0.886732 (Simulation time: 0 hr 4 min 55 sec) 
Heartbeat CPU 0 instructions: 40000000 cycles: 44620251 heartbeat IPC: 0.866806 cumulative IPC: 0.881536 (Simulation time: 0 hr 6 min 38 sec) 
Heartbeat CPU 0 instructions: 50000000 cycles: 56138132 heartbeat IPC: 0.868215 cumulative IPC: 0.878784 (Simulation time: 0 hr 8 min 18 sec) 
Heartbeat CPU 0 instructions: 60000001 cycles: 67753158 heartbeat IPC: 0.860954 cumulative IPC: 0.87571 (Simulation time: 0 hr 9 min 42 sec) 
Heartbeat CPU 0 instructions: 70000001 cycles: 79331015 heartbeat IPC: 0.863718 cumulative IPC: 0.873952 (Simulation time: 0 hr 11 min 0 sec) 
Heartbeat CPU 0 instructions: 80000003 cycles: 90966679 heartbeat IPC: 0.859427 cumulative IPC: 0.872086 (Simulation time: 0 hr 12 min 19 sec) 
Heartbeat CPU 0 instructions: 90000004 cycles: 105809817 heartbeat IPC: 0.673712 cumulative IPC: 0.844158 (Simulation time: 0 hr 13 min 54 sec) 
Heartbeat CPU 0 instructions: 100000000 cycles: 120515054 heartbeat IPC: 0.68003 cumulative IPC: 0.824068 (Simulation time: 0 hr 15 min 31 sec) 
Heartbeat CPU 0 instructions: 110000003 cycles: 138929385 heartbeat IPC: 0.543055 cumulative IPC: 0.786719 (Simulation time: 0 hr 17 min 32 sec) 
Heartbeat CPU 0 instructions: 120000000 cycles: 157969212 heartbeat IPC: 0.525215 cumulative IPC: 0.755124 (Simulation time: 0 hr 19 min 42 sec) 
Heartbeat CPU 0 instructions: 130000002 cycles: 176982551 heartbeat IPC: 0.525947 cumulative IPC: 0.730451 (Simulation time: 0 hr 21 min 59 sec) 
Heartbeat CPU 0 instructions: 140000004 cycles: 195833278 heartbeat IPC: 0.530484 cumulative IPC: 0.711165 (Simulation time: 0 hr 24 min 15 sec) 
Heartbeat CPU 0 instructions: 150000002 cycles: 212274169 heartbeat IPC: 0.608239 cumulative IPC: 0.703179 (Simulation time: 0 hr 26 min 16 sec) 
Heartbeat CPU 0 instructions: 160000002 cycles: 225243231 heartbeat IPC: 0.771066 cumulative IPC: 0.707094 (Simulation time: 0 hr 27 min 50 sec) 
Heartbeat CPU 0 instructions: 170000002 cycles: 237854740 heartbeat IPC: 0.792927 cumulative IPC: 0.711653 (Simulation time: 0 hr 29 min 26 sec) 
Heartbeat CPU 0 instructions: 180000004 cycles: 250304702 heartbeat IPC: 0.803215 cumulative IPC: 0.716214 (Simulation time: 0 hr 30 min 59 sec) 
Heartbeat CPU 0 instructions: 190000002 cycles: 262652644 heartbeat IPC: 0.809851 cumulative IPC: 0.720622 (Simulation time: 0 hr 32 min 45 sec) 
Heartbeat CPU 0 instructions: 200000004 cycles: 275022505 heartbeat IPC: 0.808417 cumulative IPC: 0.724576 (Simulation time: 0 hr 34 min 26 sec) 
Heartbeat CPU 0 instructions: 210000000 cycles: 287304627 heartbeat IPC: 0.814191 cumulative IPC: 0.728413 (Simulation time: 0 hr 35 min 58 sec) 
Heartbeat CPU 0 instructions: 220000002 cycles: 299633085 heartbeat IPC: 0.811132 cumulative IPC: 0.73182 (Simulation time: 0 hr 37 min 38 sec) 
Heartbeat CPU 0 instructions: 230000000 cycles: 312082469 heartbeat IPC: 0.803252 cumulative IPC: 0.734673 (Simulation time: 0 hr 39 min 27 sec) 
Heartbeat CPU 0 instructions: 240000002 cycles: 324437710 heartbeat IPC: 0.809373 cumulative IPC: 0.737521 (Simulation time: 0 hr 41 min 16 sec) 
Heartbeat CPU 0 instructions: 250000001 cycles: 336800303 heartbeat IPC: 0.808892 cumulative IPC: 0.740144 (Simulation time: 0 hr 43 min 9 sec) 
Heartbeat CPU 0 instructions: 260000000 cycles: 349194748 heartbeat IPC: 0.806813 cumulative IPC: 0.742513 (Simulation time: 0 hr 45 min 0 sec) 
Heartbeat CPU 0 instructions: 270000003 cycles: 361524596 heartbeat IPC: 0.81104 cumulative IPC: 0.744853 (Simulation time: 0 hr 46 min 38 sec) 
Heartbeat CPU 0 instructions: 280000000 cycles: 373796928 heartbeat IPC: 0.814841 cumulative IPC: 0.747153 (Simulation time: 0 hr 48 min 15 sec) 
Heartbeat CPU 0 instructions: 290000002 cycles: 386119241 heartbeat IPC: 0.811536 cumulative IPC: 0.749209 (Simulation time: 0 hr 49 min 50 sec) 
Heartbeat CPU 0 instructions: 300000001 cycles: 396374906 heartbeat IPC: 0.975071 cumulative IPC: 0.755059 (Simulation time: 0 hr 51 min 12 sec) 
Heartbeat CPU 0 instructions: 310000000 cycles: 406566603 heartbeat IPC: 0.981191 cumulative IPC: 0.760733 (Simulation time: 0 hr 52 min 36 sec) 
Heartbeat CPU 0 instructions: 320000004 cycles: 416611404 heartbeat IPC: 0.99554 cumulative IPC: 0.766399 (Simulation time: 0 hr 53 min 58 sec) 
Heartbeat CPU 0 instructions: 330000003 cycles: 426629564 heartbeat IPC: 0.998187 cumulative IPC: 0.771847 (Simulation time: 0 hr 55 min 15 sec) 
Heartbeat CPU 0 instructions: 340000003 cycles: 436576353 heartbeat IPC: 1.00535 cumulative IPC: 0.777172 (Simulation time: 0 hr 56 min 33 sec) 
Heartbeat CPU 0 instructions: 350000001 cycles: 448947420 heartbeat IPC: 0.808338 cumulative IPC: 0.778031 (Simulation time: 0 hr 58 min 0 sec) 
Heartbeat CPU 0 instructions: 360000002 cycles: 463870556 heartbeat IPC: 0.670101 cumulative IPC: 0.774556 (Simulation time: 0 hr 59 min 39 sec) 
Heartbeat CPU 0 instructions: 370000000 cycles: 482759006 heartbeat IPC: 0.529424 cumulative IPC: 0.764958 (Simulation time: 1 hr 1 min 42 sec) 
Heartbeat CPU 0 instructions: 380000001 cycles: 501730590 heartbeat IPC: 0.527104 cumulative IPC: 0.755957 (Simulation time: 1 hr 3 min 42 sec) 
Heartbeat CPU 0 instructions: 390000002 cycles: 520535016 heartbeat IPC: 0.53179 cumulative IPC: 0.747853 (Simulation time: 1 hr 5 min 44 sec) 
Heartbeat CPU 0 instructions: 400000002 cycles: 538108272 heartbeat IPC: 0.569046 cumulative IPC: 0.742009 (Simulation time: 1 hr 7 min 37 sec) 
Heartbeat CPU 0 instructions: 410000002 cycles: 547234064 heartbeat IPC: 1.0958 cumulative IPC: 0.747913 (Simulation time: 1 hr 8 min 51 sec) 
Heartbeat CPU 0 instructions: 420000003 cycles: 556477283 heartbeat IPC: 1.08187 cumulative IPC: 0.753464 (Simulation time: 1 hr 10 min 0 sec) 
Heartbeat CPU 0 instructions: 430000004 cycles: 565624547 heartbeat IPC: 1.09322 cumulative IPC: 0.758963 (Simulation time: 1 hr 11 min 12 sec) 
Heartbeat CPU 0 instructions: 440000002 cycles: 574772622 heartbeat IPC: 1.09313 cumulative IPC: 0.764285 (Simulation time: 1 hr 12 min 21 sec) 
Heartbeat CPU 0 instructions: 450000001 cycles: 583932933 heartbeat IPC: 1.09167 cumulative IPC: 0.769424 (Simulation time: 1 hr 13 min 31 sec) 
Heartbeat CPU 0 instructions: 460000004 cycles: 593158721 heartbeat IPC: 1.08392 cumulative IPC: 0.774318 (Simulation time: 1 hr 14 min 44 sec) 
Heartbeat CPU 0 instructions: 470000002 cycles: 602335336 heartbeat IPC: 1.08973 cumulative IPC: 0.779127 (Simulation time: 1 hr 15 min 53 sec) 
Heartbeat CPU 0 instructions: 480000002 cycles: 611563781 heartbeat IPC: 1.08361 cumulative IPC: 0.783724 (Simulation time: 1 hr 17 min 0 sec) 
Heartbeat CPU 0 instructions: 490000000 cycles: 620637567 heartbeat IPC: 1.10208 cumulative IPC: 0.788381 (Simulation time: 1 hr 18 min 0 sec) 
Heartbeat CPU 0 instructions: 500000001 cycles: 629779576 heartbeat IPC: 1.09385 cumulative IPC: 0.792818 (Simulation time: 1 hr 18 min 58 sec) 
Heartbeat CPU 0 instructions: 510000000 cycles: 638965325 heartbeat IPC: 1.08864 cumulative IPC: 0.797073 (Simulation time: 1 hr 19 min 55 sec) 
Heartbeat CPU 0 instructions: 520000004 cycles: 648175850 heartbeat IPC: 1.08571 cumulative IPC: 0.801177 (Simulation time: 1 hr 20 min 50 sec) 
Heartbeat CPU 0 instructions: 530000001 cycles: 657367675 heartbeat IPC: 1.08792 cumulative IPC: 0.805189 (Simulation time: 1 hr 21 min 45 sec) 
Heartbeat CPU 0 instructions: 540000004 cycles: 666516794 heartbeat IPC: 1.093 cumulative IPC: 0.809142 (Simulation time: 1 hr 22 min 40 sec) 
Heartbeat CPU 0 instructions: 550000000 cycles: 675655696 heartbeat IPC: 1.09422 cumulative IPC: 0.813 (Simulation time: 1 hr 23 min 35 sec) 
Heartbeat CPU 0 instructions: 560000004 cycles: 697707743 heartbeat IPC: 0.453473 cumulative IPC: 0.801631 (Simulation time: 1 hr 25 min 8 sec) 
Heartbeat CPU 0 instructions: 570000000 cycles: 722982464 heartbeat IPC: 0.395652 cumulative IPC: 0.787431 (Simulation time: 1 hr 26 min 50 sec) 
Heartbeat CPU 0 instructions: 580000004 cycles: 748057831 heartbeat IPC: 0.398798 cumulative IPC: 0.774397 (Simulation time: 1 hr 28 min 29 sec) 
Heartbeat CPU 0 instructions: 590000000 cycles: 773367950 heartbeat IPC: 0.395099 cumulative IPC: 0.761978 (Simulation time: 1 hr 30 min 9 sec) 
Heartbeat CPU 0 instructions: 600000004 cycles: 817532593 heartbeat IPC: 0.226426 cumulative IPC: 0.733033 (Simulation time: 1 hr 32 min 48 sec) 
Heartbeat CPU 0 instructions: 610000001 cycles: 845668735 heartbeat IPC: 0.355415 cumulative IPC: 0.720463 (Simulation time: 1 hr 34 min 45 sec) 
Heartbeat CPU 0 instructions: 620000001 cycles: 860292030 heartbeat IPC: 0.68384 cumulative IPC: 0.71984 (Simulation time: 1 hr 35 min 55 sec) 
Heartbeat CPU 0 instructions: 630000004 cycles: 868359582 heartbeat IPC: 1.23953 cumulative IPC: 0.724671 (Simulation time: 1 hr 36 min 42 sec) 
Heartbeat CPU 0 instructions: 640000002 cycles: 876450460 heartbeat IPC: 1.23596 cumulative IPC: 0.729393 (Simulation time: 1 hr 37 min 30 sec) 
Heartbeat CPU 0 instructions: 650000003 cycles: 884503937 heartbeat IPC: 1.2417 cumulative IPC: 0.734059 (Simulation time: 1 hr 38 min 17 sec) 
Heartbeat CPU 0 instructions: 660000000 cycles: 892556194 heartbeat IPC: 1.24189 cumulative IPC: 0.738643 (Simulation time: 1 hr 39 min 5 sec) 
Heartbeat CPU 0 instructions: 670000002 cycles: 900604860 heartbeat IPC: 1.24244 cumulative IPC: 0.743147 (Simulation time: 1 hr 39 min 52 sec) 
Heartbeat CPU 0 instructions: 680000000 cycles: 908649373 heartbeat IPC: 1.24308 cumulative IPC: 0.747575 (Simulation time: 1 hr 40 min 40 sec) 
Heartbeat CPU 0 instructions: 690000001 cycles: 921953896 heartbeat IPC: 0.751624 cumulative IPC: 0.747633 (Simulation time: 1 hr 41 min 43 sec) 
Heartbeat CPU 0 instructions: 700000000 cycles: 936968413 heartbeat IPC: 0.666022 cumulative IPC: 0.746325 (Simulation time: 1 hr 42 min 52 sec) 
Heartbeat CPU 0 instructions: 710000000 cycles: 954681398 heartbeat IPC: 0.564558 cumulative IPC: 0.742951 (Simulation time: 1 hr 44 min 8 sec) 
Heartbeat CPU 0 instructions: 720000004 cycles: 973664509 heartbeat IPC: 0.526784 cumulative IPC: 0.738735 (Simulation time: 1 hr 45 min 35 sec) 
Heartbeat CPU 0 instructions: 730000003 cycles: 992490933 heartbeat IPC: 0.531168 cumulative IPC: 0.734796 (Simulation time: 1 hr 47 min 0 sec) 
Heartbeat CPU 0 instructions: 740000003 cycles: 1011174460 heartbeat IPC: 0.535231 cumulative IPC: 0.731108 (Simulation time: 1 hr 48 min 26 sec) 
Heartbeat CPU 0 instructions: 750000000 cycles: 1027939670 heartbeat IPC: 0.596473 cumulative IPC: 0.728911 (Simulation time: 1 hr 49 min 45 sec) 
Heartbeat CPU 0 instructions: 760000000 cycles: 1039189479 heartbeat IPC: 0.888904 cumulative IPC: 0.730644 (Simulation time: 1 hr 50 min 43 sec) 
Heartbeat CPU 0 instructions: 770000000 cycles: 1050283819 heartbeat IPC: 0.901361 cumulative IPC: 0.732448 (Simulation time: 1 hr 51 min 41 sec) 
Heartbeat CPU 0 instructions: 780000001 cycles: 1061475649 heartbeat IPC: 0.893509 cumulative IPC: 0.734146 (Simulation time: 1 hr 52 min 40 sec) 
Heartbeat CPU 0 instructions: 790000003 cycles: 1072510729 heartbeat IPC: 0.906201 cumulative IPC: 0.735917 (Simulation time: 1 hr 53 min 38 sec) 
Heartbeat CPU 0 instructions: 800000004 cycles: 1083612660 heartbeat IPC: 0.900744 cumulative IPC: 0.737607 (Simulation time: 1 hr 54 min 36 sec) 
Heartbeat CPU 0 instructions: 810000004 cycles: 1094595433 heartbeat IPC: 0.910517 cumulative IPC: 0.739342 (Simulation time: 1 hr 55 min 34 sec) 
Heartbeat CPU 0 instructions: 820000003 cycles: 1105697348 heartbeat IPC: 0.900745 cumulative IPC: 0.740963 (Simulation time: 1 hr 56 min 32 sec) 
Heartbeat CPU 0 instructions: 830000001 cycles: 1116756824 heartbeat IPC: 0.904202 cumulative IPC: 0.74258 (Simulation time: 1 hr 57 min 30 sec) 
Heartbeat CPU 0 instructions: 840000000 cycles: 1127892364 heartbeat IPC: 0.898026 cumulative IPC: 0.744116 (Simulation time: 1 hr 58 min 28 sec) 
Heartbeat CPU 0 instructions: 850000003 cycles: 1139007379 heartbeat IPC: 0.899684 cumulative IPC: 0.745634 (Simulation time: 1 hr 59 min 26 sec) 
Heartbeat CPU 0 instructions: 860000003 cycles: 1150134344 heartbeat IPC: 0.898718 cumulative IPC: 0.747116 (Simulation time: 2 hr 0 min 24 sec) 
Heartbeat CPU 0 instructions: 870000002 cycles: 1161183920 heartbeat IPC: 0.905012 cumulative IPC: 0.748619 (Simulation time: 2 hr 1 min 22 sec) 
Heartbeat CPU 0 instructions: 880000003 cycles: 1172269822 heartbeat IPC: 0.902047 cumulative IPC: 0.75007 (Simulation time: 2 hr 2 min 21 sec) 
Heartbeat CPU 0 instructions: 890000004 cycles: 1183287302 heartbeat IPC: 0.907649 cumulative IPC: 0.751538 (Simulation time: 2 hr 3 min 18 sec) 
Heartbeat CPU 0 instructions: 900000000 cycles: 1194597712 heartbeat IPC: 0.884141 cumulative IPC: 0.752794 (Simulation time: 2 hr 4 min 16 sec) 
Heartbeat CPU 0 instructions: 910000003 cycles: 1206149527 heartbeat IPC: 0.865665 cumulative IPC: 0.753875 (Simulation time: 2 hr 5 min 13 sec) 
Heartbeat CPU 0 instructions: 920000001 cycles: 1217689022 heartbeat IPC: 0.866589 cumulative IPC: 0.754943 (Simulation time: 2 hr 6 min 11 sec) 
Heartbeat CPU 0 instructions: 930000003 cycles: 1229133062 heartbeat IPC: 0.873817 cumulative IPC: 0.756051 (Simulation time: 2 hr 7 min 9 sec) 
Heartbeat CPU 0 instructions: 940000004 cycles: 1240592326 heartbeat IPC: 0.872656 cumulative IPC: 0.757128 (Simulation time: 2 hr 8 min 6 sec) 
Heartbeat CPU 0 instructions: 950000000 cycles: 1252054050 heartbeat IPC: 0.872469 cumulative IPC: 0.758184 (Simulation time: 2 hr 9 min 3 sec) 
Heartbeat CPU 0 instructions: 960000000 cycles: 1265076796 heartbeat IPC: 0.767887 cumulative IPC: 0.758284 (Simulation time: 2 hr 10 min 6 sec) 
Heartbeat CPU 0 instructions: 970000000 cycles: 1280022391 heartbeat IPC: 0.669093 cumulative IPC: 0.757242 (Simulation time: 2 hr 11 min 14 sec) 
Heartbeat CPU 0 instructions: 980000001 cycles: 1296451116 heartbeat IPC: 0.60869 cumulative IPC: 0.755359 (Simulation time: 2 hr 12 min 27 sec) 
Heartbeat CPU 0 instructions: 990000004 cycles: 1315540420 heartbeat IPC: 0.523854 cumulative IPC: 0.751999 (Simulation time: 2 hr 13 min 52 sec) 
Heartbeat CPU 0 instructions: 1000000001 cycles: 1334484615 heartbeat IPC: 0.527866 cumulative IPC: 0.748816 (Simulation time: 2 hr 15 min 18 sec) 
Finished CPU 0 instructions: 1000000002 cycles: 1336024492 cumulative IPC: 0.748489 (Simulation time: 2 hr 15 min 27 sec) 

ChampSim completed all CPUs

Region of Interest Statistics

CPU 0 cumulative IPC: 0.748489 instructions: 1000000002 cycles: 1336024492
cpu0_DTLB TOTAL     ACCESS:  239175854  HIT:  238955692  MISS:     220162
cpu0_DTLB LOAD      ACCESS:  215169564  HIT:  214996420  MISS:     173144
cpu0_DTLB RFO       ACCESS:   24006290  HIT:   23959272  MISS:      47018
cpu0_DTLB PREFETCH  ACCESS:          0  HIT:          0  MISS:          0
cpu0_DTLB WRITEBACK ACCESS:          0  HIT:          0  MISS:          0
cpu0_DTLB TRANSLATION ACCESS:          0  HIT:          0  MISS:          0
cpu0_DTLB PREFETCH  REQUESTED:          0  ISSUED:          0  USEFUL:          0  USELESS:          0
cpu0_DTLB AVERAGE MISS LATENCY: 49.4497 cycles
cpu0_ITLB TOTAL     ACCESS:    7649425  HIT:    7649409  MISS:         16
cpu0_ITLB LOAD      ACCESS:    7649425  HIT:    7649409  MISS:         16
cpu0_ITLB RFO       ACCESS:          0  HIT:          0  MISS:          0
cpu0_ITLB PREFETCH  ACCESS:          0  HIT:          0  MISS:          0
cpu0_ITLB WRITEBACK ACCESS:          0  HIT:          0  MISS:          0
cpu0_ITLB TRANSLATION ACCESS:          0  HIT:          0  MISS:          0
cpu0_ITLB PREFETCH  REQUESTED:          0  ISSUED:          0  USEFUL:          0  USELESS:          0
cpu0_ITLB AVERAGE MISS LATENCY: 429 cycles
cpu0_L1I TOTAL     ACCESS:   21535185  HIT:   21534515  MISS:        670
cpu0_L1I LOAD      ACCESS:   21535185  HIT:   21534515  MISS:        670
cpu0_L1I RFO       ACCESS:          0  HIT:          0  MISS:          0
cpu0_L1I PREFETCH  ACCESS:          0  HIT:          0  MISS:          0
cpu0_L1I WRITEBACK ACCESS:          0  HIT:          0  MISS:          0
cpu0_L1I TRANSLATION ACCESS:          0  HIT:          0  MISS:          0
cpu0_L1I PREFETCH  REQUESTED:          0  ISSUED:          0  USEFUL:          0  USELESS:          0
cpu0_L1I AVERAGE MISS LATENCY: 661.539 cycles
cpu0_STLB TOTAL     ACCESS:     220178  HIT:     111317  MISS:     108861
cpu0_STLB LOAD      ACCESS:     173160  HIT:      96277  MISS:      76883
cpu0_STLB RFO       ACCESS:      47018  HIT:      15040  MISS:      31978
cpu0_STLB PREFETCH  ACCESS:          0  HIT:          0  MISS:          0
cpu0_STLB WRITEBACK ACCESS:          0  HIT:          0  MISS:          0
cpu0_STLB TRANSLATION ACCESS:          0  HIT:          0  MISS:          0
cpu0_STLB PREFETCH  REQUESTED:          0  ISSUED:          0  USEFUL:          0  USELESS:          0
cpu0_STLB AVERAGE MISS LATENCY: 81.8369 cycles
cpu0_L1D TOTAL     ACCESS:  502437569  HIT:  490006697  MISS:   12430872
cpu0_L1D LOAD      ACCESS:  272505361  HIT:  267935083  MISS:    4570278
cpu0_L1D RFO       ACCESS:   21688597  HIT:   18938564  MISS:    2750033
cpu0_L1D PREFETCH  ACCESS:  208142211  HIT:  203050561  MISS:    5091650
cpu0_L1D WRITEBACK ACCESS:          0  HIT:          0  MISS:          0
cpu0_L1D TRANSLATION ACCESS:     101400  HIT:      82489  MISS:      18911
cpu0_L1D PREFETCH  REQUESTED:  277077829  ISSUED:  232377232  USEFUL:    7994847  USELESS:     358115
cpu0_L1D AVERAGE MISS LATENCY: 270.309 cycles
cpu0_L2C TOTAL     ACCESS:   19292062  HIT:   11052303  MISS:    8239759
cpu0_L2C LOAD      ACCESS:    1387908  HIT:    1136802  MISS:     251106
cpu0_L2C RFO       ACCESS:    2669451  HIT:     871211  MISS:    1798240
cpu0_L2C PREFETCH  ACCESS:   11640450  HIT:    5453315  MISS:    6187135
cpu0_L2C WRITEBACK ACCESS:    3575342  HIT:    3572706  MISS:       2636
cpu0_L2C TRANSLATION ACCESS:      18911  HIT:      18269  MISS:        642
cpu0_L2C PREFETCH  REQUESTED:    3387738  ISSUED:    3386881  USEFUL:     120811  USELESS:      41955
cpu0_L2C AVERAGE MISS LATENCY: 736.764 cycles
LLC TOTAL     ACCESS:   10615757  HIT:    3468597  MISS:    7147160
LLC LOAD      ACCESS:     251103  HIT:      72392  MISS:     178711
LLC RFO       ACCESS:    1798235  HIT:     184901  MISS:    1613334
LLC PREFETCH  ACCESS:    6201966  HIT:     852831  MISS:    5349135
LLC WRITEBACK ACCESS:    2363811  HIT:    2357969  MISS:       5842
LLC TRANSLATION ACCESS:        642  HIT:        504  MISS:        138
LLC PREFETCH  REQUESTED:          0  ISSUED:          0  USEFUL:          0  USELESS:          0
LLC AVERAGE MISS LATENCY: 821.733 cycles

DRAM Statistics
 CHANNEL 0
 RQ ROW_BUFFER_HIT:     224911  ROW_BUFFER_MISS:    6915155
 DBUS AVG_CONGESTED_CYCLE:    3.98065
 WQ ROW_BUFFER_HIT:     107270  ROW_BUFFER_MISS:    2015202  FULL:          0


CPU 0 Branch Prediction Accuracy: 99.0134% MPKI: 0.246289 Average ROB Occupancy at Mispredict: 122.78
Branch type MPKI
BRANCH_DIRECT_JUMP: 5.5e-05
BRANCH_INDIRECT: 0
BRANCH_CONDITIONAL: 0.245999
BRANCH_DIRECT_CALL: 0.00012
BRANCH_INDIRECT_CALL: 0
BRANCH_RETURN: 0.000115

