
*** ChampSim Multicore Out-of-Order Simulator ***

Warmup Instructions: 1000000
Simulation Instructions: 1000000000
Number of CPUs: 1
Off-chip DRAM Size: 4 GiB Channels: 1 Width: 64-bit Data Rate: 3200 MT/s

VirtualMemory physical capacity: 8588881920 num_ppages: 2096895
VirtualMemory page size: 4096 log2_page_size: 12

CPU 0 runs tracer/pin/traces/spec2k6/473.astar-153B.champsimtrace.xz
Basic BTB sets: 1024 ways: 8 indirect buffer size: 4096 RAS size: 64
cpu0_L1D next line prefetcher
cpu0_L2C IP-based stride prefetcher
WARNING: The extended signature CACHE::prefetch_line(ip, base_addr, pf_addr, fill_this_level, prefetch_metadata) is deprecated.
WARNING: Use CACHE::prefetch_line(pf_addr, fill_this_level, prefetch_metadata) instead.

Warmup complete CPU 0 instructions: 1000004 cycles: 250082 (Simulation time: 0 hr 0 min 3 sec) 

Heartbeat CPU 0 instructions: 10000004 cycles: 11829397 heartbeat IPC: 0.845352 cumulative IPC: 0.777248 (Simulation time: 0 hr 1 min 7 sec) 
Heartbeat CPU 0 instructions: 20000000 cycles: 22278673 heartbeat IPC: 0.957004 cumulative IPC: 0.862515 (Simulation time: 0 hr 2 min 6 sec) 
Heartbeat CPU 0 instructions: 30000000 cycles: 32576699 heartbeat IPC: 0.97106 cumulative IPC: 0.897093 (Simulation time: 0 hr 3 min 7 sec) 
Heartbeat CPU 0 instructions: 40000000 cycles: 42871700 heartbeat IPC: 0.971345 cumulative IPC: 0.915029 (Simulation time: 0 hr 4 min 9 sec) 
Heartbeat CPU 0 instructions: 50000000 cycles: 52992997 heartbeat IPC: 0.988016 cumulative IPC: 0.929035 (Simulation time: 0 hr 5 min 9 sec) 
Heartbeat CPU 0 instructions: 60000001 cycles: 62732700 heartbeat IPC: 1.02673 cumulative IPC: 0.944263 (Simulation time: 0 hr 6 min 8 sec) 
Heartbeat CPU 0 instructions: 70000001 cycles: 72275638 heartbeat IPC: 1.0479 cumulative IPC: 0.957993 (Simulation time: 0 hr 7 min 5 sec) 
Heartbeat CPU 0 instructions: 80000000 cycles: 81833196 heartbeat IPC: 1.04629 cumulative IPC: 0.968338 (Simulation time: 0 hr 8 min 3 sec) 
Heartbeat CPU 0 instructions: 90000000 cycles: 91308838 heartbeat IPC: 1.05534 cumulative IPC: 0.977391 (Simulation time: 0 hr 9 min 0 sec) 
Heartbeat CPU 0 instructions: 100000000 cycles: 101079030 heartbeat IPC: 1.02352 cumulative IPC: 0.981861 (Simulation time: 0 hr 9 min 59 sec) 
Heartbeat CPU 0 instructions: 110000002 cycles: 110517796 heartbeat IPC: 1.05946 cumulative IPC: 0.988503 (Simulation time: 0 hr 10 min 58 sec) 
Heartbeat CPU 0 instructions: 120000001 cycles: 120278025 heartbeat IPC: 1.02457 cumulative IPC: 0.991436 (Simulation time: 0 hr 11 min 57 sec) 
Heartbeat CPU 0 instructions: 130000001 cycles: 130758222 heartbeat IPC: 0.954181 cumulative IPC: 0.988444 (Simulation time: 0 hr 12 min 59 sec) 
Heartbeat CPU 0 instructions: 140000003 cycles: 140449385 heartbeat IPC: 1.03187 cumulative IPC: 0.991446 (Simulation time: 0 hr 13 min 58 sec) 
Heartbeat CPU 0 instructions: 150000000 cycles: 150488519 heartbeat IPC: 0.996102 cumulative IPC: 0.991757 (Simulation time: 0 hr 14 min 58 sec) 
Heartbeat CPU 0 instructions: 160000002 cycles: 160438503 heartbeat IPC: 1.00503 cumulative IPC: 0.992581 (Simulation time: 0 hr 15 min 57 sec) 
Heartbeat CPU 0 instructions: 170000000 cycles: 171401902 heartbeat IPC: 0.912126 cumulative IPC: 0.987427 (Simulation time: 0 hr 16 min 59 sec) 
Heartbeat CPU 0 instructions: 180000000 cycles: 182278320 heartbeat IPC: 0.91942 cumulative IPC: 0.983364 (Simulation time: 0 hr 18 min 3 sec) 
Heartbeat CPU 0 instructions: 190000000 cycles: 192032598 heartbeat IPC: 1.02519 cumulative IPC: 0.985491 (Simulation time: 0 hr 19 min 2 sec) 
Heartbeat CPU 0 instructions: 200000000 cycles: 202131825 heartbeat IPC: 0.990175 cumulative IPC: 0.985726 (Simulation time: 0 hr 20 min 2 sec) 
Heartbeat CPU 0 instructions: 210000004 cycles: 213257817 heartbeat IPC: 0.898797 cumulative IPC: 0.981185 (Simulation time: 0 hr 21 min 7 sec) 
Heartbeat CPU 0 instructions: 220000001 cycles: 223925876 heartbeat IPC: 0.937377 cumulative IPC: 0.979096 (Simulation time: 0 hr 22 min 7 sec) 
Heartbeat CPU 0 instructions: 230000003 cycles: 236265297 heartbeat IPC: 0.810411 cumulative IPC: 0.970276 (Simulation time: 0 hr 23 min 11 sec) 
Heartbeat CPU 0 instructions: 240000004 cycles: 247005998 heartbeat IPC: 0.931038 cumulative IPC: 0.968568 (Simulation time: 0 hr 24 min 11 sec) 
Heartbeat CPU 0 instructions: 250000003 cycles: 258500555 heartbeat IPC: 0.869977 cumulative IPC: 0.96418 (Simulation time: 0 hr 25 min 13 sec) 
Heartbeat CPU 0 instructions: 260000000 cycles: 268578665 heartbeat IPC: 0.992249 cumulative IPC: 0.965234 (Simulation time: 0 hr 26 min 10 sec) 
Heartbeat CPU 0 instructions: 270000001 cycles: 278433295 heartbeat IPC: 1.01475 cumulative IPC: 0.966989 (Simulation time: 0 hr 27 min 5 sec) 
Heartbeat CPU 0 instructions: 280000001 cycles: 288649765 heartbeat IPC: 0.978812 cumulative IPC: 0.967407 (Simulation time: 0 hr 28 min 1 sec) 
Heartbeat CPU 0 instructions: 290000003 cycles: 298705346 heartbeat IPC: 0.994473 cumulative IPC: 0.968319 (Simulation time: 0 hr 28 min 57 sec) 
Heartbeat CPU 0 instructions: 300000000 cycles: 308928597 heartbeat IPC: 0.978162 cumulative IPC: 0.968645 (Simulation time: 0 hr 29 min 53 sec) 
Heartbeat CPU 0 instructions: 310000004 cycles: 319146126 heartbeat IPC: 0.978711 cumulative IPC: 0.968968 (Simulation time: 0 hr 30 min 50 sec) 
Heartbeat CPU 0 instructions: 320000001 cycles: 329588220 heartbeat IPC: 0.957662 cumulative IPC: 0.968609 (Simulation time: 0 hr 31 min 47 sec) 
Heartbeat CPU 0 instructions: 330000000 cycles: 340144999 heartbeat IPC: 0.947259 cumulative IPC: 0.967946 (Simulation time: 0 hr 32 min 46 sec) 
Heartbeat CPU 0 instructions: 340000002 cycles: 350366765 heartbeat IPC: 0.978305 cumulative IPC: 0.968249 (Simulation time: 0 hr 33 min 43 sec) 
Heartbeat CPU 0 instructions: 350000001 cycles: 360614444 heartbeat IPC: 0.975831 cumulative IPC: 0.968464 (Simulation time: 0 hr 34 min 40 sec) 
Heartbeat CPU 0 instructions: 360000002 cycles: 371668669 heartbeat IPC: 0.904632 cumulative IPC: 0.966564 (Simulation time: 0 hr 35 min 40 sec) 
Heartbeat CPU 0 instructions: 370000000 cycles: 382678697 heartbeat IPC: 0.908263 cumulative IPC: 0.964886 (Simulation time: 0 hr 36 min 39 sec) 
Heartbeat CPU 0 instructions: 380000002 cycles: 393222641 heartbeat IPC: 0.948412 cumulative IPC: 0.964444 (Simulation time: 0 hr 37 min 36 sec) 
Heartbeat CPU 0 instructions: 390000004 cycles: 403831100 heartbeat IPC: 0.942644 cumulative IPC: 0.963871 (Simulation time: 0 hr 38 min 34 sec) 
Heartbeat CPU 0 instructions: 400000003 cycles: 414662748 heartbeat IPC: 0.92322 cumulative IPC: 0.962808 (Simulation time: 0 hr 39 min 33 sec) 
Heartbeat CPU 0 instructions: 410000004 cycles: 425946765 heartbeat IPC: 0.886209 cumulative IPC: 0.960778 (Simulation time: 0 hr 40 min 35 sec) 
Heartbeat CPU 0 instructions: 420000000 cycles: 436664166 heartbeat IPC: 0.933062 cumulative IPC: 0.960097 (Simulation time: 0 hr 41 min 33 sec) 
Heartbeat CPU 0 instructions: 430000000 cycles: 447575659 heartbeat IPC: 0.916465 cumulative IPC: 0.959033 (Simulation time: 0 hr 42 min 32 sec) 
Heartbeat CPU 0 instructions: 440000003 cycles: 458481995 heartbeat IPC: 0.916898 cumulative IPC: 0.95803 (Simulation time: 0 hr 43 min 29 sec) 
Heartbeat CPU 0 instructions: 450000001 cycles: 469723036 heartbeat IPC: 0.889597 cumulative IPC: 0.956392 (Simulation time: 0 hr 44 min 28 sec) 
Heartbeat CPU 0 instructions: 460000003 cycles: 480737364 heartbeat IPC: 0.907908 cumulative IPC: 0.95528 (Simulation time: 0 hr 45 min 27 sec) 
Heartbeat CPU 0 instructions: 470000004 cycles: 492403815 heartbeat IPC: 0.857159 cumulative IPC: 0.952954 (Simulation time: 0 hr 46 min 27 sec) 
Heartbeat CPU 0 instructions: 480000000 cycles: 504706609 heartbeat IPC: 0.812823 cumulative IPC: 0.949537 (Simulation time: 0 hr 47 min 28 sec) 
Heartbeat CPU 0 instructions: 490000003 cycles: 518690818 heartbeat IPC: 0.715092 cumulative IPC: 0.943213 (Simulation time: 0 hr 48 min 34 sec) 
Heartbeat CPU 0 instructions: 500000003 cycles: 533540309 heartbeat IPC: 0.673424 cumulative IPC: 0.935701 (Simulation time: 0 hr 49 min 42 sec) 
Heartbeat CPU 0 instructions: 510000001 cycles: 545959978 heartbeat IPC: 0.805174 cumulative IPC: 0.93273 (Simulation time: 0 hr 50 min 44 sec) 
Heartbeat CPU 0 instructions: 520000004 cycles: 559110854 heartbeat IPC: 0.760406 cumulative IPC: 0.928675 (Simulation time: 0 hr 51 min 49 sec) 
Heartbeat CPU 0 instructions: 530000004 cycles: 571812286 heartbeat IPC: 0.787313 cumulative IPC: 0.925534 (Simulation time: 0 hr 52 min 52 sec) 
Heartbeat CPU 0 instructions: 540000002 cycles: 584558686 heartbeat IPC: 0.784535 cumulative IPC: 0.922458 (Simulation time: 0 hr 53 min 53 sec) 
Heartbeat CPU 0 instructions: 550000000 cycles: 598161802 heartbeat IPC: 0.735126 cumulative IPC: 0.918196 (Simulation time: 0 hr 55 min 0 sec) 
Heartbeat CPU 0 instructions: 560000001 cycles: 611144682 heartbeat IPC: 0.770245 cumulative IPC: 0.915051 (Simulation time: 0 hr 56 min 3 sec) 
Heartbeat CPU 0 instructions: 570000000 cycles: 623441958 heartbeat IPC: 0.813188 cumulative IPC: 0.913041 (Simulation time: 0 hr 57 min 6 sec) 
Heartbeat CPU 0 instructions: 580000000 cycles: 634846412 heartbeat IPC: 0.87685 cumulative IPC: 0.912391 (Simulation time: 0 hr 58 min 4 sec) 
Heartbeat CPU 0 instructions: 590000001 cycles: 647451106 heartbeat IPC: 0.793355 cumulative IPC: 0.910073 (Simulation time: 0 hr 59 min 6 sec) 
Heartbeat CPU 0 instructions: 600000004 cycles: 659631990 heartbeat IPC: 0.820959 cumulative IPC: 0.908427 (Simulation time: 1 hr 0 min 5 sec) 
Heartbeat CPU 0 instructions: 610000003 cycles: 672119957 heartbeat IPC: 0.800771 cumulative IPC: 0.906426 (Simulation time: 1 hr 1 min 7 sec) 
Heartbeat CPU 0 instructions: 620000003 cycles: 683763130 heartbeat IPC: 0.858872 cumulative IPC: 0.905616 (Simulation time: 1 hr 2 min 7 sec) 
Heartbeat CPU 0 instructions: 630000000 cycles: 696121467 heartbeat IPC: 0.80917 cumulative IPC: 0.903903 (Simulation time: 1 hr 3 min 9 sec) 
Heartbeat CPU 0 instructions: 640000003 cycles: 708062600 heartbeat IPC: 0.837442 cumulative IPC: 0.902781 (Simulation time: 1 hr 4 min 10 sec) 
Heartbeat CPU 0 instructions: 650000002 cycles: 719805763 heartbeat IPC: 0.851559 cumulative IPC: 0.901945 (Simulation time: 1 hr 5 min 11 sec) 
Heartbeat CPU 0 instructions: 660000001 cycles: 731796744 heartbeat IPC: 0.83396 cumulative IPC: 0.900831 (Simulation time: 1 hr 6 min 14 sec) 
Heartbeat CPU 0 instructions: 670000002 cycles: 743927506 heartbeat IPC: 0.824351 cumulative IPC: 0.899584 (Simulation time: 1 hr 7 min 18 sec) 
Heartbeat CPU 0 instructions: 680000004 cycles: 756258077 heartbeat IPC: 0.810993 cumulative IPC: 0.898139 (Simulation time: 1 hr 8 min 23 sec) 
Heartbeat CPU 0 instructions: 690000002 cycles: 768475083 heartbeat IPC: 0.818531 cumulative IPC: 0.896873 (Simulation time: 1 hr 9 min 29 sec) 
Heartbeat CPU 0 instructions: 700000003 cycles: 781759619 heartbeat IPC: 0.752755 cumulative IPC: 0.894423 (Simulation time: 1 hr 10 min 37 sec) 
Heartbeat CPU 0 instructions: 710000004 cycles: 794191694 heartbeat IPC: 0.804371 cumulative IPC: 0.893013 (Simulation time: 1 hr 11 min 43 sec) 
Heartbeat CPU 0 instructions: 720000000 cycles: 806054713 heartbeat IPC: 0.842955 cumulative IPC: 0.892276 (Simulation time: 1 hr 12 min 46 sec) 
Heartbeat CPU 0 instructions: 730000000 cycles: 818326071 heartbeat IPC: 0.814906 cumulative IPC: 0.891115 (Simulation time: 1 hr 13 min 49 sec) 
Heartbeat CPU 0 instructions: 740000002 cycles: 830603066 heartbeat IPC: 0.814532 cumulative IPC: 0.889983 (Simulation time: 1 hr 14 min 53 sec) 
Heartbeat CPU 0 instructions: 750000004 cycles: 844042584 heartbeat IPC: 0.744074 cumulative IPC: 0.887659 (Simulation time: 1 hr 16 min 4 sec) 
Heartbeat CPU 0 instructions: 760000004 cycles: 858131295 heartbeat IPC: 0.709788 cumulative IPC: 0.884738 (Simulation time: 1 hr 17 min 14 sec) 
Heartbeat CPU 0 instructions: 770000002 cycles: 872149809 heartbeat IPC: 0.713342 cumulative IPC: 0.881982 (Simulation time: 1 hr 18 min 22 sec) 
Heartbeat CPU 0 instructions: 780000000 cycles: 885563173 heartbeat IPC: 0.745525 cumulative IPC: 0.879915 (Simulation time: 1 hr 19 min 29 sec) 
Heartbeat CPU 0 instructions: 790000000 cycles: 898687835 heartbeat IPC: 0.761924 cumulative IPC: 0.878191 (Simulation time: 1 hr 20 min 35 sec) 
Heartbeat CPU 0 instructions: 800000001 cycles: 912361302 heartbeat IPC: 0.731344 cumulative IPC: 0.87599 (Simulation time: 1 hr 21 min 43 sec) 
Heartbeat CPU 0 instructions: 810000003 cycles: 925251543 heartbeat IPC: 0.775781 cumulative IPC: 0.874593 (Simulation time: 1 hr 22 min 49 sec) 
Heartbeat CPU 0 instructions: 820000001 cycles: 938631933 heartbeat IPC: 0.747362 cumulative IPC: 0.872779 (Simulation time: 1 hr 23 min 59 sec) 
Heartbeat CPU 0 instructions: 830000003 cycles: 951890846 heartbeat IPC: 0.75421 cumulative IPC: 0.871127 (Simulation time: 1 hr 25 min 9 sec) 
Heartbeat CPU 0 instructions: 840000001 cycles: 964268832 heartbeat IPC: 0.807886 cumulative IPC: 0.870315 (Simulation time: 1 hr 26 min 16 sec) 
Heartbeat CPU 0 instructions: 850000000 cycles: 976165472 heartbeat IPC: 0.840573 cumulative IPC: 0.869952 (Simulation time: 1 hr 27 min 23 sec) 
Heartbeat CPU 0 instructions: 860000004 cycles: 988931415 heartbeat IPC: 0.783335 cumulative IPC: 0.868834 (Simulation time: 1 hr 28 min 30 sec) 
Heartbeat CPU 0 instructions: 870000000 cycles: 1002150704 heartbeat IPC: 0.75647 cumulative IPC: 0.867351 (Simulation time: 1 hr 29 min 42 sec) 
Heartbeat CPU 0 instructions: 880000002 cycles: 1014658894 heartbeat IPC: 0.799476 cumulative IPC: 0.866515 (Simulation time: 1 hr 30 min 51 sec) 
Heartbeat CPU 0 instructions: 890000004 cycles: 1028103671 heartbeat IPC: 0.743783 cumulative IPC: 0.864909 (Simulation time: 1 hr 32 min 2 sec) 
Heartbeat CPU 0 instructions: 900000000 cycles: 1042894157 heartbeat IPC: 0.67611 cumulative IPC: 0.862231 (Simulation time: 1 hr 33 min 18 sec) 
Heartbeat CPU 0 instructions: 910000002 cycles: 1057556613 heartbeat IPC: 0.682014 cumulative IPC: 0.859732 (Simulation time: 1 hr 34 min 34 sec) 
Heartbeat CPU 0 instructions: 920000004 cycles: 1071568930 heartbeat IPC: 0.713658 cumulative IPC: 0.857821 (Simulation time: 1 hr 35 min 48 sec) 
Heartbeat CPU 0 instructions: 930000002 cycles: 1085143915 heartbeat IPC: 0.736649 cumulative IPC: 0.856305 (Simulation time: 1 hr 36 min 59 sec) 
Heartbeat CPU 0 instructions: 940000000 cycles: 1098616338 heartbeat IPC: 0.742257 cumulative IPC: 0.854906 (Simulation time: 1 hr 38 min 11 sec) 
Heartbeat CPU 0 instructions: 950000002 cycles: 1112258362 heartbeat IPC: 0.733029 cumulative IPC: 0.853411 (Simulation time: 1 hr 39 min 22 sec) 
Heartbeat CPU 0 instructions: 960000000 cycles: 1125941489 heartbeat IPC: 0.730827 cumulative IPC: 0.851921 (Simulation time: 1 hr 40 min 35 sec) 
Heartbeat CPU 0 instructions: 970000000 cycles: 1138785399 heartbeat IPC: 0.778579 cumulative IPC: 0.851093 (Simulation time: 1 hr 41 min 45 sec) 
Heartbeat CPU 0 instructions: 980000000 cycles: 1151909826 heartbeat IPC: 0.761938 cumulative IPC: 0.850077 (Simulation time: 1 hr 42 min 55 sec) 
Heartbeat CPU 0 instructions: 990000002 cycles: 1164602350 heartbeat IPC: 0.787866 cumulative IPC: 0.849399 (Simulation time: 1 hr 44 min 5 sec) 
Heartbeat CPU 0 instructions: 1000000000 cycles: 1177857858 heartbeat IPC: 0.754403 cumulative IPC: 0.84833 (Simulation time: 1 hr 45 min 16 sec) 
Finished CPU 0 instructions: 1000000003 cycles: 1178987361 cumulative IPC: 0.848185 (Simulation time: 1 hr 45 min 23 sec) 

ChampSim completed all CPUs

Region of Interest Statistics

CPU 0 cumulative IPC: 0.848185 instructions: 1000000003 cycles: 1178987361
cpu0_DTLB TOTAL     ACCESS:  234146876  HIT:  231106486  MISS:    3040390
cpu0_DTLB LOAD      ACCESS:  180343084  HIT:  177424231  MISS:    2918853
cpu0_DTLB RFO       ACCESS:   53803792  HIT:   53682255  MISS:     121537
cpu0_DTLB PREFETCH  ACCESS:          0  HIT:          0  MISS:          0
cpu0_DTLB WRITEBACK ACCESS:          0  HIT:          0  MISS:          0
cpu0_DTLB TRANSLATION ACCESS:          0  HIT:          0  MISS:          0
cpu0_DTLB PREFETCH  REQUESTED:          0  ISSUED:          0  USEFUL:          0  USELESS:          0
cpu0_DTLB AVERAGE MISS LATENCY: 10.1993 cycles
cpu0_ITLB TOTAL     ACCESS:  105536873  HIT:  105536873  MISS:          0
cpu0_ITLB LOAD      ACCESS:  105536873  HIT:  105536873  MISS:          0
cpu0_ITLB RFO       ACCESS:          0  HIT:          0  MISS:          0
cpu0_ITLB PREFETCH  ACCESS:          0  HIT:          0  MISS:          0
cpu0_ITLB WRITEBACK ACCESS:          0  HIT:          0  MISS:          0
cpu0_ITLB TRANSLATION ACCESS:          0  HIT:          0  MISS:          0
cpu0_ITLB PREFETCH  REQUESTED:          0  ISSUED:          0  USEFUL:          0  USELESS:          0
cpu0_ITLB AVERAGE MISS LATENCY: -nan cycles
cpu0_STLB TOTAL     ACCESS:    3040390  HIT:    2709838  MISS:     330552
cpu0_STLB LOAD      ACCESS:    2918853  HIT:    2602090  MISS:     316763
cpu0_STLB RFO       ACCESS:     121537  HIT:     107748  MISS:      13789
cpu0_STLB PREFETCH  ACCESS:          0  HIT:          0  MISS:          0
cpu0_STLB WRITEBACK ACCESS:          0  HIT:          0  MISS:          0
cpu0_STLB TRANSLATION ACCESS:          0  HIT:          0  MISS:          0
cpu0_STLB PREFETCH  REQUESTED:          0  ISSUED:          0  USEFUL:          0  USELESS:          0
cpu0_STLB AVERAGE MISS LATENCY: 10.9653 cycles
cpu0_L1D TOTAL     ACCESS:  458100354  HIT:  448883302  MISS:    9217052
cpu0_L1D LOAD      ACCESS:  164127770  HIT:  159543521  MISS:    4584249
cpu0_L1D RFO       ACCESS:  129919067  HIT:  129166672  MISS:     752395
cpu0_L1D PREFETCH  ACCESS:  163724007  HIT:  159861438  MISS:    3862569
cpu0_L1D WRITEBACK ACCESS:          0  HIT:          0  MISS:          0
cpu0_L1D TRANSLATION ACCESS:     329510  HIT:     311671  MISS:      17839
cpu0_L1D PREFETCH  REQUESTED:  166587502  ISSUED:  166072245  USEFUL:    3462033  USELESS:     435165
cpu0_L1D AVERAGE MISS LATENCY: 98.8828 cycles
cpu0_L2C TOTAL     ACCESS:   13203686  HIT:    9356718  MISS:    3846968
cpu0_L2C LOAD      ACCESS:    4548944  HIT:    2678085  MISS:    1870859
cpu0_L2C RFO       ACCESS:     752386  HIT:     301577  MISS:     450809
cpu0_L2C PREFETCH  ACCESS:    5896734  HIT:    4373563  MISS:    1523171
cpu0_L2C WRITEBACK ACCESS:    1987783  HIT:    1986705  MISS:       1078
cpu0_L2C TRANSLATION ACCESS:      17839  HIT:      16788  MISS:       1051
cpu0_L2C PREFETCH  REQUESTED:    2000224  ISSUED:    2000224  USEFUL:      56853  USELESS:       2286
cpu0_L2C AVERAGE MISS LATENCY: 212.249 cycles
LLC TOTAL     ACCESS:    5322280  HIT:    3067127  MISS:    2255153
LLC LOAD      ACCESS:    1870785  HIT:     795920  MISS:    1074865
LLC RFO       ACCESS:     450807  HIT:      67696  MISS:     383111
LLC PREFETCH  ACCESS:    1523174  HIT:     737347  MISS:     785827
LLC WRITEBACK ACCESS:    1476463  HIT:    1465145  MISS:      11318
LLC TRANSLATION ACCESS:       1051  HIT:       1019  MISS:         32
LLC PREFETCH  REQUESTED:          0  ISSUED:          0  USEFUL:          0  USELESS:          0
LLC AVERAGE MISS LATENCY: 316.027 cycles

DRAM Statistics
 CHANNEL 0
 RQ ROW_BUFFER_HIT:     144617  ROW_BUFFER_MISS:    2099163
 DBUS AVG_CONGESTED_CYCLE:    3.72351
 WQ ROW_BUFFER_HIT:     186687  ROW_BUFFER_MISS:     971636  FULL:          0


CPU 0 Branch Prediction Accuracy: 86.4943% MPKI: 17.6184 Average ROB Occupancy at Mispredict: 45.4563
Branch type MPKI
BRANCH_DIRECT_JUMP: 0
BRANCH_INDIRECT: 0
BRANCH_CONDITIONAL: 17.6184
BRANCH_DIRECT_CALL: 0
BRANCH_INDIRECT_CALL: 0
BRANCH_RETURN: 0

