
*** ChampSim Multicore Out-of-Order Simulator ***

Warmup Instructions: 1000000
Simulation Instructions: 1000000000
Number of CPUs: 1
Off-chip DRAM Size: 4 GiB Channels: 1 Width: 64-bit Data Rate: 3200 MT/s

VirtualMemory physical capacity: 8588881920 num_ppages: 2096895
VirtualMemory page size: 4096 log2_page_size: 12

CPU 0 runs tracer/pin/traces/spec2k17/620.omnetpp_s-874B.champsimtrace.xz
Basic BTB sets: 1024 ways: 8 indirect buffer size: 4096 RAS size: 64
cpu0_L1D next line prefetcher
cpu0_L2C IP-based stride prefetcher
WARNING: The extended signature CACHE::prefetch_line(ip, base_addr, pf_addr, fill_this_level, prefetch_metadata) is deprecated.
WARNING: Use CACHE::prefetch_line(pf_addr, fill_this_level, prefetch_metadata) instead.

Warmup complete CPU 0 instructions: 1000001 cycles: 266179 (Simulation time: 0 hr 0 min 3 sec) 

Heartbeat CPU 0 instructions: 10000003 cycles: 25996798 heartbeat IPC: 0.384663 cumulative IPC: 0.349778 (Simulation time: 0 hr 1 min 22 sec) 
Heartbeat CPU 0 instructions: 20000003 cycles: 54036275 heartbeat IPC: 0.35664 cumulative IPC: 0.353356 (Simulation time: 0 hr 2 min 50 sec) 
Heartbeat CPU 0 instructions: 30000002 cycles: 81999910 heartbeat IPC: 0.357607 cumulative IPC: 0.354811 (Simulation time: 0 hr 4 min 19 sec) 
Heartbeat CPU 0 instructions: 40000004 cycles: 111067129 heartbeat IPC: 0.34403 cumulative IPC: 0.351983 (Simulation time: 0 hr 5 min 53 sec) 
Heartbeat CPU 0 instructions: 50000001 cycles: 139586813 heartbeat IPC: 0.350635 cumulative IPC: 0.351707 (Simulation time: 0 hr 7 min 26 sec) 
Heartbeat CPU 0 instructions: 60000004 cycles: 168259980 heartbeat IPC: 0.348758 cumulative IPC: 0.351203 (Simulation time: 0 hr 9 min 7 sec) 
Heartbeat CPU 0 instructions: 70000003 cycles: 195775839 heartbeat IPC: 0.363427 cumulative IPC: 0.352924 (Simulation time: 0 hr 10 min 51 sec) 
Heartbeat CPU 0 instructions: 80000003 cycles: 223774994 heartbeat IPC: 0.357154 cumulative IPC: 0.353454 (Simulation time: 0 hr 12 min 36 sec) 
Heartbeat CPU 0 instructions: 90000004 cycles: 250709680 heartbeat IPC: 0.371269 cumulative IPC: 0.35537 (Simulation time: 0 hr 14 min 26 sec) 
Heartbeat CPU 0 instructions: 100000001 cycles: 279058022 heartbeat IPC: 0.352754 cumulative IPC: 0.355104 (Simulation time: 0 hr 16 min 25 sec) 
Heartbeat CPU 0 instructions: 110000000 cycles: 307024018 heartbeat IPC: 0.357577 cumulative IPC: 0.355329 (Simulation time: 0 hr 18 min 29 sec) 
Heartbeat CPU 0 instructions: 120000001 cycles: 334664244 heartbeat IPC: 0.361792 cumulative IPC: 0.355863 (Simulation time: 0 hr 20 min 41 sec) 
Heartbeat CPU 0 instructions: 130000002 cycles: 362498794 heartbeat IPC: 0.359266 cumulative IPC: 0.356125 (Simulation time: 0 hr 22 min 52 sec) 
Heartbeat CPU 0 instructions: 140000002 cycles: 389654875 heartbeat IPC: 0.368242 cumulative IPC: 0.35697 (Simulation time: 0 hr 25 min 9 sec) 
Heartbeat CPU 0 instructions: 150000004 cycles: 416842853 heartbeat IPC: 0.36781 cumulative IPC: 0.357677 (Simulation time: 0 hr 27 min 24 sec) 
Heartbeat CPU 0 instructions: 160000000 cycles: 444817458 heartbeat IPC: 0.357467 cumulative IPC: 0.357664 (Simulation time: 0 hr 29 min 44 sec) 
Heartbeat CPU 0 instructions: 170000003 cycles: 472094108 heartbeat IPC: 0.366614 cumulative IPC: 0.358181 (Simulation time: 0 hr 32 min 1 sec) 
Heartbeat CPU 0 instructions: 180000000 cycles: 499398270 heartbeat IPC: 0.366244 cumulative IPC: 0.358622 (Simulation time: 0 hr 34 min 17 sec) 
Heartbeat CPU 0 instructions: 190000004 cycles: 526528991 heartbeat IPC: 0.368586 cumulative IPC: 0.359136 (Simulation time: 0 hr 36 min 32 sec) 
Heartbeat CPU 0 instructions: 200000004 cycles: 553298881 heartbeat IPC: 0.373554 cumulative IPC: 0.359834 (Simulation time: 0 hr 38 min 47 sec) 
Heartbeat CPU 0 instructions: 210000000 cycles: 580239647 heartbeat IPC: 0.371185 cumulative IPC: 0.360361 (Simulation time: 0 hr 41 min 4 sec) 
Heartbeat CPU 0 instructions: 220000000 cycles: 607706868 heartbeat IPC: 0.36407 cumulative IPC: 0.360529 (Simulation time: 0 hr 43 min 21 sec) 
Heartbeat CPU 0 instructions: 230000004 cycles: 634028582 heartbeat IPC: 0.379915 cumulative IPC: 0.361334 (Simulation time: 0 hr 45 min 36 sec) 
Heartbeat CPU 0 instructions: 240000002 cycles: 661127948 heartbeat IPC: 0.369012 cumulative IPC: 0.361649 (Simulation time: 0 hr 47 min 52 sec) 
Heartbeat CPU 0 instructions: 250000001 cycles: 688728781 heartbeat IPC: 0.362308 cumulative IPC: 0.361675 (Simulation time: 0 hr 50 min 11 sec) 
Heartbeat CPU 0 instructions: 260000001 cycles: 716116178 heartbeat IPC: 0.365131 cumulative IPC: 0.361808 (Simulation time: 0 hr 52 min 30 sec) 
Heartbeat CPU 0 instructions: 270000002 cycles: 744101493 heartbeat IPC: 0.35733 cumulative IPC: 0.361639 (Simulation time: 0 hr 54 min 53 sec) 
Heartbeat CPU 0 instructions: 280000002 cycles: 772432566 heartbeat IPC: 0.352969 cumulative IPC: 0.361321 (Simulation time: 0 hr 57 min 15 sec) 
Heartbeat CPU 0 instructions: 290000001 cycles: 800474915 heartbeat IPC: 0.356603 cumulative IPC: 0.361156 (Simulation time: 0 hr 59 min 36 sec) 
Heartbeat CPU 0 instructions: 300000003 cycles: 827263666 heartbeat IPC: 0.373291 cumulative IPC: 0.361549 (Simulation time: 1 hr 1 min 50 sec) 
Heartbeat CPU 0 instructions: 310000001 cycles: 853654162 heartbeat IPC: 0.378924 cumulative IPC: 0.362086 (Simulation time: 1 hr 4 min 5 sec) 
Heartbeat CPU 0 instructions: 320000003 cycles: 880597156 heartbeat IPC: 0.371154 cumulative IPC: 0.362364 (Simulation time: 1 hr 6 min 19 sec) 
Heartbeat CPU 0 instructions: 330000003 cycles: 908549723 heartbeat IPC: 0.357749 cumulative IPC: 0.362222 (Simulation time: 1 hr 8 min 40 sec) 
Heartbeat CPU 0 instructions: 340000000 cycles: 936628564 heartbeat IPC: 0.35614 cumulative IPC: 0.362039 (Simulation time: 1 hr 10 min 58 sec) 
Heartbeat CPU 0 instructions: 350000002 cycles: 965428985 heartbeat IPC: 0.347217 cumulative IPC: 0.361597 (Simulation time: 1 hr 13 min 24 sec) 
Heartbeat CPU 0 instructions: 360000004 cycles: 993268402 heartbeat IPC: 0.359203 cumulative IPC: 0.36153 (Simulation time: 1 hr 15 min 43 sec) 
Heartbeat CPU 0 instructions: 370000001 cycles: 1020874897 heartbeat IPC: 0.362233 cumulative IPC: 0.361549 (Simulation time: 1 hr 18 min 2 sec) 
Heartbeat CPU 0 instructions: 380000003 cycles: 1048019326 heartbeat IPC: 0.3684 cumulative IPC: 0.361726 (Simulation time: 1 hr 20 min 17 sec) 
Heartbeat CPU 0 instructions: 390000003 cycles: 1074359091 heartbeat IPC: 0.379654 cumulative IPC: 0.362166 (Simulation time: 1 hr 22 min 29 sec) 
Heartbeat CPU 0 instructions: 400000000 cycles: 1102639371 heartbeat IPC: 0.353603 cumulative IPC: 0.361946 (Simulation time: 1 hr 24 min 50 sec) 
Heartbeat CPU 0 instructions: 410000000 cycles: 1130427774 heartbeat IPC: 0.359862 cumulative IPC: 0.361895 (Simulation time: 1 hr 27 min 7 sec) 
Heartbeat CPU 0 instructions: 420000003 cycles: 1157571015 heartbeat IPC: 0.368416 cumulative IPC: 0.362048 (Simulation time: 1 hr 29 min 19 sec) 
Heartbeat CPU 0 instructions: 430000001 cycles: 1184784992 heartbeat IPC: 0.367458 cumulative IPC: 0.362172 (Simulation time: 1 hr 31 min 28 sec) 
Heartbeat CPU 0 instructions: 440000004 cycles: 1211335212 heartbeat IPC: 0.376645 cumulative IPC: 0.36249 (Simulation time: 1 hr 33 min 33 sec) 
Heartbeat CPU 0 instructions: 450000004 cycles: 1238505495 heartbeat IPC: 0.368049 cumulative IPC: 0.362612 (Simulation time: 1 hr 35 min 41 sec) 
Heartbeat CPU 0 instructions: 460000004 cycles: 1264993299 heartbeat IPC: 0.377532 cumulative IPC: 0.362924 (Simulation time: 1 hr 37 min 43 sec) 
Heartbeat CPU 0 instructions: 470000001 cycles: 1292627033 heartbeat IPC: 0.361876 cumulative IPC: 0.362902 (Simulation time: 1 hr 39 min 47 sec) 
Heartbeat CPU 0 instructions: 480000003 cycles: 1320529867 heartbeat IPC: 0.358387 cumulative IPC: 0.362806 (Simulation time: 1 hr 41 min 50 sec) 
Heartbeat CPU 0 instructions: 490000004 cycles: 1346871663 heartbeat IPC: 0.379625 cumulative IPC: 0.363135 (Simulation time: 1 hr 43 min 50 sec) 
Heartbeat CPU 0 instructions: 500000000 cycles: 1373080918 heartbeat IPC: 0.381544 cumulative IPC: 0.363487 (Simulation time: 1 hr 45 min 43 sec) 
Heartbeat CPU 0 instructions: 510000003 cycles: 1399577820 heartbeat IPC: 0.377403 cumulative IPC: 0.36375 (Simulation time: 1 hr 47 min 32 sec) 
Heartbeat CPU 0 instructions: 520000002 cycles: 1426041603 heartbeat IPC: 0.377875 cumulative IPC: 0.364012 (Simulation time: 1 hr 49 min 24 sec) 
Heartbeat CPU 0 instructions: 530000003 cycles: 1453578720 heartbeat IPC: 0.363146 cumulative IPC: 0.363996 (Simulation time: 1 hr 51 min 5 sec) 
Heartbeat CPU 0 instructions: 540000000 cycles: 1479756624 heartbeat IPC: 0.382001 cumulative IPC: 0.364315 (Simulation time: 1 hr 52 min 49 sec) 
Heartbeat CPU 0 instructions: 550000001 cycles: 1506924157 heartbeat IPC: 0.368086 cumulative IPC: 0.364383 (Simulation time: 1 hr 54 min 25 sec) 
Heartbeat CPU 0 instructions: 560000001 cycles: 1534708121 heartbeat IPC: 0.35992 cumulative IPC: 0.364302 (Simulation time: 1 hr 56 min 8 sec) 
Heartbeat CPU 0 instructions: 570000003 cycles: 1561205731 heartbeat IPC: 0.377393 cumulative IPC: 0.364524 (Simulation time: 1 hr 57 min 45 sec) 
Heartbeat CPU 0 instructions: 580000001 cycles: 1587601023 heartbeat IPC: 0.378855 cumulative IPC: 0.364762 (Simulation time: 1 hr 59 min 19 sec) 
Heartbeat CPU 0 instructions: 590000003 cycles: 1615101468 heartbeat IPC: 0.363631 cumulative IPC: 0.364743 (Simulation time: 2 hr 1 min 1 sec) 
Heartbeat CPU 0 instructions: 600000001 cycles: 1642262035 heartbeat IPC: 0.368181 cumulative IPC: 0.3648 (Simulation time: 2 hr 2 min 42 sec) 
Heartbeat CPU 0 instructions: 610000000 cycles: 1668970563 heartbeat IPC: 0.374412 cumulative IPC: 0.364954 (Simulation time: 2 hr 4 min 28 sec) 
Heartbeat CPU 0 instructions: 620000000 cycles: 1697443450 heartbeat IPC: 0.351211 cumulative IPC: 0.364723 (Simulation time: 2 hr 6 min 15 sec) 
Heartbeat CPU 0 instructions: 630000000 cycles: 1724977614 heartbeat IPC: 0.363185 cumulative IPC: 0.364699 (Simulation time: 2 hr 8 min 8 sec) 
Heartbeat CPU 0 instructions: 640000001 cycles: 1752568460 heartbeat IPC: 0.362439 cumulative IPC: 0.364663 (Simulation time: 2 hr 10 min 1 sec) 
Heartbeat CPU 0 instructions: 650000003 cycles: 1781095053 heartbeat IPC: 0.35055 cumulative IPC: 0.364437 (Simulation time: 2 hr 12 min 4 sec) 
Heartbeat CPU 0 instructions: 660000001 cycles: 1809218377 heartbeat IPC: 0.355577 cumulative IPC: 0.364299 (Simulation time: 2 hr 14 min 5 sec) 
Heartbeat CPU 0 instructions: 670000000 cycles: 1837238977 heartbeat IPC: 0.35688 cumulative IPC: 0.364186 (Simulation time: 2 hr 16 min 12 sec) 
Heartbeat CPU 0 instructions: 680000002 cycles: 1864222637 heartbeat IPC: 0.370595 cumulative IPC: 0.364279 (Simulation time: 2 hr 18 min 15 sec) 
Heartbeat CPU 0 instructions: 690000002 cycles: 1891438306 heartbeat IPC: 0.367435 cumulative IPC: 0.364324 (Simulation time: 2 hr 20 min 20 sec) 
Heartbeat CPU 0 instructions: 700000000 cycles: 1918153121 heartbeat IPC: 0.374324 cumulative IPC: 0.364464 (Simulation time: 2 hr 22 min 24 sec) 
Heartbeat CPU 0 instructions: 710000000 cycles: 1945018677 heartbeat IPC: 0.372224 cumulative IPC: 0.364571 (Simulation time: 2 hr 24 min 26 sec) 
Heartbeat CPU 0 instructions: 720000002 cycles: 1973642316 heartbeat IPC: 0.349362 cumulative IPC: 0.36435 (Simulation time: 2 hr 26 min 38 sec) 
Heartbeat CPU 0 instructions: 730000002 cycles: 2001323851 heartbeat IPC: 0.361252 cumulative IPC: 0.364307 (Simulation time: 2 hr 28 min 37 sec) 
Heartbeat CPU 0 instructions: 740000000 cycles: 2029518241 heartbeat IPC: 0.35468 cumulative IPC: 0.364174 (Simulation time: 2 hr 30 min 36 sec) 
Heartbeat CPU 0 instructions: 750000003 cycles: 2056633632 heartbeat IPC: 0.368794 cumulative IPC: 0.364235 (Simulation time: 2 hr 32 min 28 sec) 
Heartbeat CPU 0 instructions: 760000001 cycles: 2083391338 heartbeat IPC: 0.373724 cumulative IPC: 0.364356 (Simulation time: 2 hr 34 min 16 sec) 
Heartbeat CPU 0 instructions: 770000002 cycles: 2112324942 heartbeat IPC: 0.345619 cumulative IPC: 0.3641 (Simulation time: 2 hr 36 min 9 sec) 
Heartbeat CPU 0 instructions: 780000001 cycles: 2140427387 heartbeat IPC: 0.355841 cumulative IPC: 0.363991 (Simulation time: 2 hr 38 min 2 sec) 
Heartbeat CPU 0 instructions: 790000004 cycles: 2170159384 heartbeat IPC: 0.336338 cumulative IPC: 0.363612 (Simulation time: 2 hr 39 min 59 sec) 
Heartbeat CPU 0 instructions: 800000003 cycles: 2197848597 heartbeat IPC: 0.361151 cumulative IPC: 0.363581 (Simulation time: 2 hr 41 min 45 sec) 
Heartbeat CPU 0 instructions: 810000002 cycles: 2226001959 heartbeat IPC: 0.355197 cumulative IPC: 0.363475 (Simulation time: 2 hr 43 min 34 sec) 
Heartbeat CPU 0 instructions: 820000000 cycles: 2253855271 heartbeat IPC: 0.359024 cumulative IPC: 0.36342 (Simulation time: 2 hr 45 min 20 sec) 
Heartbeat CPU 0 instructions: 830000000 cycles: 2282558082 heartbeat IPC: 0.348398 cumulative IPC: 0.363231 (Simulation time: 2 hr 47 min 7 sec) 
Heartbeat CPU 0 instructions: 840000000 cycles: 2311348592 heartbeat IPC: 0.347337 cumulative IPC: 0.363033 (Simulation time: 2 hr 48 min 57 sec) 
Heartbeat CPU 0 instructions: 850000001 cycles: 2339566010 heartbeat IPC: 0.354391 cumulative IPC: 0.362929 (Simulation time: 2 hr 50 min 48 sec) 
Heartbeat CPU 0 instructions: 860000000 cycles: 2367935605 heartbeat IPC: 0.35249 cumulative IPC: 0.362804 (Simulation time: 2 hr 52 min 34 sec) 
Heartbeat CPU 0 instructions: 870000000 cycles: 2396965827 heartbeat IPC: 0.344469 cumulative IPC: 0.362582 (Simulation time: 2 hr 54 min 22 sec) 
Heartbeat CPU 0 instructions: 880000001 cycles: 2424909007 heartbeat IPC: 0.357869 cumulative IPC: 0.362528 (Simulation time: 2 hr 56 min 6 sec) 
Heartbeat CPU 0 instructions: 890000001 cycles: 2453100142 heartbeat IPC: 0.354721 cumulative IPC: 0.362438 (Simulation time: 2 hr 57 min 51 sec) 
Heartbeat CPU 0 instructions: 900000003 cycles: 2481086296 heartbeat IPC: 0.35732 cumulative IPC: 0.36238 (Simulation time: 2 hr 59 min 35 sec) 
Heartbeat CPU 0 instructions: 910000001 cycles: 2509275909 heartbeat IPC: 0.354741 cumulative IPC: 0.362294 (Simulation time: 3 hr 1 min 21 sec) 
Heartbeat CPU 0 instructions: 920000001 cycles: 2537433687 heartbeat IPC: 0.355142 cumulative IPC: 0.362215 (Simulation time: 3 hr 3 min 6 sec) 
Heartbeat CPU 0 instructions: 930000001 cycles: 2565957834 heartbeat IPC: 0.35058 cumulative IPC: 0.362086 (Simulation time: 3 hr 4 min 45 sec) 
Heartbeat CPU 0 instructions: 940000003 cycles: 2594005455 heartbeat IPC: 0.356537 cumulative IPC: 0.362026 (Simulation time: 3 hr 6 min 28 sec) 
Heartbeat CPU 0 instructions: 950000002 cycles: 2622052226 heartbeat IPC: 0.356547 cumulative IPC: 0.361967 (Simulation time: 3 hr 8 min 7 sec) 
Heartbeat CPU 0 instructions: 960000000 cycles: 2649652586 heartbeat IPC: 0.362314 cumulative IPC: 0.361971 (Simulation time: 3 hr 9 min 38 sec) 
Heartbeat CPU 0 instructions: 970000001 cycles: 2677747114 heartbeat IPC: 0.355941 cumulative IPC: 0.361907 (Simulation time: 3 hr 11 min 14 sec) 
Heartbeat CPU 0 instructions: 980000000 cycles: 2706133413 heartbeat IPC: 0.352283 cumulative IPC: 0.361806 (Simulation time: 3 hr 12 min 54 sec) 
Heartbeat CPU 0 instructions: 990000003 cycles: 2734599213 heartbeat IPC: 0.351299 cumulative IPC: 0.361697 (Simulation time: 3 hr 14 min 36 sec) 
Heartbeat CPU 0 instructions: 1000000004 cycles: 2762452596 heartbeat IPC: 0.359023 cumulative IPC: 0.36167 (Simulation time: 3 hr 16 min 13 sec) 
Finished CPU 0 instructions: 1000000000 cycles: 2765378938 cumulative IPC: 0.361614 (Simulation time: 3 hr 16 min 25 sec) 

ChampSim completed all CPUs

Region of Interest Statistics

CPU 0 cumulative IPC: 0.361614 instructions: 1000000000 cycles: 2765378938
cpu0_DTLB TOTAL     ACCESS:  253891760  HIT:  234667542  MISS:   19224218
cpu0_DTLB LOAD      ACCESS:  162444110  HIT:  145778726  MISS:   16665384
cpu0_DTLB RFO       ACCESS:   91447650  HIT:   88888816  MISS:    2558834
cpu0_DTLB PREFETCH  ACCESS:          0  HIT:          0  MISS:          0
cpu0_DTLB WRITEBACK ACCESS:          0  HIT:          0  MISS:          0
cpu0_DTLB TRANSLATION ACCESS:          0  HIT:          0  MISS:          0
cpu0_DTLB PREFETCH  REQUESTED:          0  ISSUED:          0  USEFUL:          0  USELESS:          0
cpu0_DTLB AVERAGE MISS LATENCY: 11.4398 cycles
cpu0_ITLB TOTAL     ACCESS:   92646848  HIT:   91016061  MISS:    1630787
cpu0_ITLB LOAD      ACCESS:   92646848  HIT:   91016061  MISS:    1630787
cpu0_ITLB RFO       ACCESS:          0  HIT:          0  MISS:          0
cpu0_ITLB PREFETCH  ACCESS:          0  HIT:          0  MISS:          0
cpu0_ITLB WRITEBACK ACCESS:          0  HIT:          0  MISS:          0
cpu0_ITLB TRANSLATION ACCESS:          0  HIT:          0  MISS:          0
cpu0_ITLB PREFETCH  REQUESTED:          0  ISSUED:          0  USEFUL:          0  USELESS:          0
cpu0_ITLB AVERAGE MISS LATENCY: 9.25092 cycles
cpu0_L1I TOTAL     ACCESS:   98466862  HIT:   98087539  MISS:     379323
cpu0_L1I LOAD      ACCESS:   98466862  HIT:   98087539  MISS:     379323
cpu0_L1I RFO       ACCESS:          0  HIT:          0  MISS:          0
cpu0_L1I PREFETCH  ACCESS:          0  HIT:          0  MISS:          0
cpu0_L1I WRITEBACK ACCESS:          0  HIT:          0  MISS:          0
cpu0_L1I TRANSLATION ACCESS:          0  HIT:          0  MISS:          0
cpu0_L1I PREFETCH  REQUESTED:          0  ISSUED:          0  USEFUL:          0  USELESS:          0
cpu0_L1I AVERAGE MISS LATENCY: 39.325 cycles
cpu0_STLB TOTAL     ACCESS:   20855005  HIT:   16568368  MISS:    4286637
cpu0_STLB LOAD      ACCESS:   18296171  HIT:   14812555  MISS:    3483616
cpu0_STLB RFO       ACCESS:    2558834  HIT:    1755813  MISS:     803021
cpu0_STLB PREFETCH  ACCESS:          0  HIT:          0  MISS:          0
cpu0_STLB WRITEBACK ACCESS:          0  HIT:          0  MISS:          0
cpu0_STLB TRANSLATION ACCESS:          0  HIT:          0  MISS:          0
cpu0_STLB PREFETCH  REQUESTED:          0  ISSUED:          0  USEFUL:          0  USELESS:          0
cpu0_STLB AVERAGE MISS LATENCY: 10.9866 cycles
cpu0_L1D TOTAL     ACCESS:  532777086  HIT:  497981677  MISS:   34795409
cpu0_L1D LOAD      ACCESS:  176958558  HIT:  159809733  MISS:   17148825
cpu0_L1D RFO       ACCESS:  179057680  HIT:  177527753  MISS:    1529927
cpu0_L1D PREFETCH  ACCESS:  172528281  HIT:  156908092  MISS:   15620189
cpu0_L1D WRITEBACK ACCESS:          0  HIT:          0  MISS:          0
cpu0_L1D TRANSLATION ACCESS:    4232567  HIT:    3736099  MISS:     496468
cpu0_L1D PREFETCH  REQUESTED:  178333962  ISSUED:  177997605  USEFUL:   10468600  USELESS:    5900728
cpu0_L1D AVERAGE MISS LATENCY: 189.151 cycles
cpu0_L2C TOTAL     ACCESS:   45807085  HIT:   22818816  MISS:   22988269
cpu0_L2C LOAD      ACCESS:   16957453  HIT:    6317292  MISS:   10640161
cpu0_L2C RFO       ACCESS:    1345939  HIT:     202809  MISS:    1143130
cpu0_L2C PREFETCH  ACCESS:   16628012  HIT:    5490871  MISS:   11137141
cpu0_L2C WRITEBACK ACCESS:   10379213  HIT:   10325056  MISS:      54157
cpu0_L2C TRANSLATION ACCESS:     496468  HIT:     482788  MISS:      13680
cpu0_L2C PREFETCH  REQUESTED:     274239  ISSUED:     262277  USEFUL:      12708  USELESS:     227219
cpu0_L2C AVERAGE MISS LATENCY: 283.029 cycles
LLC TOTAL     ACCESS:   30566934  HIT:   16088515  MISS:   14478419
LLC LOAD      ACCESS:   10640071  HIT:    3868208  MISS:    6771863
LLC RFO       ACCESS:    1143115  HIT:     513466  MISS:     629649
LLC PREFETCH  ACCESS:   11137588  HIT:    4103283  MISS:    7034305
LLC WRITEBACK ACCESS:    7632480  HIT:    7591171  MISS:      41309
LLC TRANSLATION ACCESS:      13680  HIT:      12387  MISS:       1293
LLC PREFETCH  REQUESTED:          0  ISSUED:          0  USEFUL:          0  USELESS:          0
LLC AVERAGE MISS LATENCY: 406.64 cycles

DRAM Statistics
 CHANNEL 0
 RQ ROW_BUFFER_HIT:     612450  ROW_BUFFER_MISS:   13821107
 DBUS AVG_CONGESTED_CYCLE:    3.87062
 WQ ROW_BUFFER_HIT:     247715  ROW_BUFFER_MISS:    4337878  FULL:          0


CPU 0 Branch Prediction Accuracy: 96.2926% MPKI: 7.7084 Average ROB Occupancy at Mispredict: 54.6966
Branch type MPKI
BRANCH_DIRECT_JUMP: 8.5e-05
BRANCH_INDIRECT: 0.124685
BRANCH_CONDITIONAL: 7.03073
BRANCH_DIRECT_CALL: 0.000149
BRANCH_INDIRECT_CALL: 0.157817
BRANCH_RETURN: 0.394934

