
*** ChampSim Multicore Out-of-Order Simulator ***

Warmup Instructions: 1000000
Simulation Instructions: 1000000000
Number of CPUs: 1
Off-chip DRAM Size: 4 GiB Channels: 1 Width: 64-bit Data Rate: 3200 MT/s

VirtualMemory physical capacity: 8588881920 num_ppages: 2096895
VirtualMemory page size: 4096 log2_page_size: 12

CPU 0 runs tracer/pin/traces/spec2k6/482.sphinx3-1395B.champsimtrace.xz
Basic BTB sets: 1024 ways: 8 indirect buffer size: 4096 RAS size: 64
cpu0_L1D next line prefetcher
cpu0_L2C IP-based stride prefetcher
WARNING: The extended signature CACHE::prefetch_line(ip, base_addr, pf_addr, fill_this_level, prefetch_metadata) is deprecated.
WARNING: Use CACHE::prefetch_line(pf_addr, fill_this_level, prefetch_metadata) instead.

Warmup complete CPU 0 instructions: 1000003 cycles: 274175 (Simulation time: 0 hr 0 min 3 sec) 

Heartbeat CPU 0 instructions: 10000000 cycles: 13625438 heartbeat IPC: 0.733921 cumulative IPC: 0.674093 (Simulation time: 0 hr 1 min 28 sec) 
Heartbeat CPU 0 instructions: 20000002 cycles: 28748546 heartbeat IPC: 0.66124 cumulative IPC: 0.667267 (Simulation time: 0 hr 3 min 7 sec) 
Heartbeat CPU 0 instructions: 30000002 cycles: 46067761 heartbeat IPC: 0.577393 cumulative IPC: 0.633276 (Simulation time: 0 hr 4 min 59 sec) 
Heartbeat CPU 0 instructions: 40000000 cycles: 64689678 heartbeat IPC: 0.537002 cumulative IPC: 0.605444 (Simulation time: 0 hr 6 min 58 sec) 
Heartbeat CPU 0 instructions: 50000002 cycles: 83382497 heartbeat IPC: 0.534965 cumulative IPC: 0.589592 (Simulation time: 0 hr 8 min 58 sec) 
Heartbeat CPU 0 instructions: 60000003 cycles: 99559686 heartbeat IPC: 0.618154 cumulative IPC: 0.594246 (Simulation time: 0 hr 10 min 41 sec) 
Heartbeat CPU 0 instructions: 70000003 cycles: 117763237 heartbeat IPC: 0.549343 cumulative IPC: 0.587289 (Simulation time: 0 hr 12 min 33 sec) 
Heartbeat CPU 0 instructions: 80000002 cycles: 136595440 heartbeat IPC: 0.531005 cumulative IPC: 0.579513 (Simulation time: 0 hr 14 min 20 sec) 
Heartbeat CPU 0 instructions: 90000002 cycles: 152646306 heartbeat IPC: 0.623019 cumulative IPC: 0.584096 (Simulation time: 0 hr 15 min 58 sec) 
Heartbeat CPU 0 instructions: 100000003 cycles: 165848213 heartbeat IPC: 0.757466 cumulative IPC: 0.59792 (Simulation time: 0 hr 17 min 25 sec) 
Heartbeat CPU 0 instructions: 110000002 cycles: 181198968 heartbeat IPC: 0.651434 cumulative IPC: 0.60246 (Simulation time: 0 hr 19 min 5 sec) 
Heartbeat CPU 0 instructions: 120000003 cycles: 197675918 heartbeat IPC: 0.606909 cumulative IPC: 0.602832 (Simulation time: 0 hr 20 min 53 sec) 
Heartbeat CPU 0 instructions: 130000001 cycles: 211766015 heartbeat IPC: 0.709718 cumulative IPC: 0.609953 (Simulation time: 0 hr 22 min 32 sec) 
Heartbeat CPU 0 instructions: 140000003 cycles: 223993194 heartbeat IPC: 0.81785 cumulative IPC: 0.621315 (Simulation time: 0 hr 24 min 3 sec) 
Heartbeat CPU 0 instructions: 150000002 cycles: 235218157 heartbeat IPC: 0.890871 cumulative IPC: 0.634194 (Simulation time: 0 hr 25 min 29 sec) 
Heartbeat CPU 0 instructions: 160000003 cycles: 246824643 heartbeat IPC: 0.861587 cumulative IPC: 0.644898 (Simulation time: 0 hr 26 min 57 sec) 
Heartbeat CPU 0 instructions: 170000000 cycles: 258201403 heartbeat IPC: 0.878985 cumulative IPC: 0.655224 (Simulation time: 0 hr 28 min 24 sec) 
Heartbeat CPU 0 instructions: 180000004 cycles: 271086685 heartbeat IPC: 0.77608 cumulative IPC: 0.660974 (Simulation time: 0 hr 29 min 57 sec) 
Heartbeat CPU 0 instructions: 190000000 cycles: 286896893 heartbeat IPC: 0.632502 cumulative IPC: 0.659403 (Simulation time: 0 hr 31 min 45 sec) 
Heartbeat CPU 0 instructions: 200000004 cycles: 304206227 heartbeat IPC: 0.577723 cumulative IPC: 0.654752 (Simulation time: 0 hr 33 min 41 sec) 
Heartbeat CPU 0 instructions: 210000004 cycles: 322477639 heartbeat IPC: 0.547303 cumulative IPC: 0.648658 (Simulation time: 0 hr 35 min 41 sec) 
Heartbeat CPU 0 instructions: 220000000 cycles: 340930230 heartbeat IPC: 0.541929 cumulative IPC: 0.642877 (Simulation time: 0 hr 37 min 41 sec) 
Heartbeat CPU 0 instructions: 230000001 cycles: 357493655 heartbeat IPC: 0.60374 cumulative IPC: 0.641062 (Simulation time: 0 hr 39 min 33 sec) 
Heartbeat CPU 0 instructions: 240000004 cycles: 377609603 heartbeat IPC: 0.497118 cumulative IPC: 0.633389 (Simulation time: 0 hr 41 min 40 sec) 
Heartbeat CPU 0 instructions: 250000000 cycles: 396486751 heartbeat IPC: 0.529741 cumulative IPC: 0.628451 (Simulation time: 0 hr 43 min 39 sec) 
Heartbeat CPU 0 instructions: 260000003 cycles: 416768477 heartbeat IPC: 0.493055 cumulative IPC: 0.621857 (Simulation time: 0 hr 45 min 41 sec) 
Heartbeat CPU 0 instructions: 270000004 cycles: 435337552 heartbeat IPC: 0.53853 cumulative IPC: 0.618301 (Simulation time: 0 hr 47 min 37 sec) 
Heartbeat CPU 0 instructions: 280000001 cycles: 453992247 heartbeat IPC: 0.536058 cumulative IPC: 0.614919 (Simulation time: 0 hr 49 min 38 sec) 
Heartbeat CPU 0 instructions: 290000003 cycles: 471881834 heartbeat IPC: 0.558985 cumulative IPC: 0.612797 (Simulation time: 0 hr 51 min 37 sec) 
Heartbeat CPU 0 instructions: 300000003 cycles: 489057937 heartbeat IPC: 0.582204 cumulative IPC: 0.611722 (Simulation time: 0 hr 53 min 33 sec) 
Heartbeat CPU 0 instructions: 310000001 cycles: 506119204 heartbeat IPC: 0.586123 cumulative IPC: 0.610859 (Simulation time: 0 hr 55 min 26 sec) 
Heartbeat CPU 0 instructions: 320000001 cycles: 524924201 heartbeat IPC: 0.531774 cumulative IPC: 0.608024 (Simulation time: 0 hr 57 min 28 sec) 
Heartbeat CPU 0 instructions: 330000003 cycles: 543041581 heartbeat IPC: 0.551956 cumulative IPC: 0.606153 (Simulation time: 0 hr 59 min 27 sec) 
Heartbeat CPU 0 instructions: 340000004 cycles: 563321900 heartbeat IPC: 0.493089 cumulative IPC: 0.60208 (Simulation time: 1 hr 1 min 36 sec) 
Heartbeat CPU 0 instructions: 350000001 cycles: 582010474 heartbeat IPC: 0.535086 cumulative IPC: 0.599928 (Simulation time: 1 hr 3 min 39 sec) 
Heartbeat CPU 0 instructions: 360000001 cycles: 602426554 heartbeat IPC: 0.48981 cumulative IPC: 0.596195 (Simulation time: 1 hr 5 min 46 sec) 
Heartbeat CPU 0 instructions: 370000003 cycles: 621499522 heartbeat IPC: 0.524302 cumulative IPC: 0.593987 (Simulation time: 1 hr 7 min 50 sec) 
Heartbeat CPU 0 instructions: 380000002 cycles: 641973919 heartbeat IPC: 0.488415 cumulative IPC: 0.590619 (Simulation time: 1 hr 9 min 58 sec) 
Heartbeat CPU 0 instructions: 390000004 cycles: 659725016 heartbeat IPC: 0.563346 cumulative IPC: 0.589885 (Simulation time: 1 hr 11 min 56 sec) 
Heartbeat CPU 0 instructions: 400000000 cycles: 679468464 heartbeat IPC: 0.506497 cumulative IPC: 0.587461 (Simulation time: 1 hr 14 min 3 sec) 
Heartbeat CPU 0 instructions: 410000001 cycles: 699393000 heartbeat IPC: 0.501894 cumulative IPC: 0.585022 (Simulation time: 1 hr 16 min 11 sec) 
Heartbeat CPU 0 instructions: 420000000 cycles: 719303178 heartbeat IPC: 0.502256 cumulative IPC: 0.58273 (Simulation time: 1 hr 18 min 18 sec) 
Heartbeat CPU 0 instructions: 430000002 cycles: 738066703 heartbeat IPC: 0.532949 cumulative IPC: 0.581464 (Simulation time: 1 hr 20 min 20 sec) 
Heartbeat CPU 0 instructions: 440000001 cycles: 756226873 heartbeat IPC: 0.550656 cumulative IPC: 0.580724 (Simulation time: 1 hr 22 min 20 sec) 
Heartbeat CPU 0 instructions: 450000004 cycles: 773876373 heartbeat IPC: 0.566588 cumulative IPC: 0.580402 (Simulation time: 1 hr 24 min 16 sec) 
Heartbeat CPU 0 instructions: 460000002 cycles: 791380468 heartbeat IPC: 0.571295 cumulative IPC: 0.5802 (Simulation time: 1 hr 26 min 13 sec) 
Heartbeat CPU 0 instructions: 470000004 cycles: 809294743 heartbeat IPC: 0.558214 cumulative IPC: 0.579713 (Simulation time: 1 hr 28 min 12 sec) 
Heartbeat CPU 0 instructions: 480000003 cycles: 826216491 heartbeat IPC: 0.590955 cumulative IPC: 0.579944 (Simulation time: 1 hr 30 min 6 sec) 
Heartbeat CPU 0 instructions: 490000003 cycles: 844216338 heartbeat IPC: 0.55556 cumulative IPC: 0.579424 (Simulation time: 1 hr 32 min 1 sec) 
Heartbeat CPU 0 instructions: 500000000 cycles: 862011547 heartbeat IPC: 0.561949 cumulative IPC: 0.579063 (Simulation time: 1 hr 33 min 53 sec) 
Heartbeat CPU 0 instructions: 510000000 cycles: 879757878 heartbeat IPC: 0.563497 cumulative IPC: 0.578749 (Simulation time: 1 hr 35 min 44 sec) 
Heartbeat CPU 0 instructions: 520000004 cycles: 896455560 heartbeat IPC: 0.598886 cumulative IPC: 0.579124 (Simulation time: 1 hr 37 min 27 sec) 
Heartbeat CPU 0 instructions: 530000002 cycles: 912347091 heartbeat IPC: 0.629266 cumulative IPC: 0.579997 (Simulation time: 1 hr 39 min 10 sec) 
Heartbeat CPU 0 instructions: 540000000 cycles: 923907679 heartbeat IPC: 0.865008 cumulative IPC: 0.583565 (Simulation time: 1 hr 40 min 38 sec) 
Heartbeat CPU 0 instructions: 550000001 cycles: 935064574 heartbeat IPC: 0.896307 cumulative IPC: 0.587297 (Simulation time: 1 hr 41 min 59 sec) 
Heartbeat CPU 0 instructions: 560000000 cycles: 945515474 heartbeat IPC: 0.956855 cumulative IPC: 0.591383 (Simulation time: 1 hr 43 min 18 sec) 
Heartbeat CPU 0 instructions: 570000000 cycles: 956388921 heartbeat IPC: 0.919672 cumulative IPC: 0.595117 (Simulation time: 1 hr 44 min 36 sec) 
Heartbeat CPU 0 instructions: 580000000 cycles: 967068549 heartbeat IPC: 0.936362 cumulative IPC: 0.598886 (Simulation time: 1 hr 45 min 52 sec) 
Heartbeat CPU 0 instructions: 590000000 cycles: 978163607 heartbeat IPC: 0.901302 cumulative IPC: 0.602318 (Simulation time: 1 hr 47 min 13 sec) 
Heartbeat CPU 0 instructions: 600000004 cycles: 990171014 heartbeat IPC: 0.83282 cumulative IPC: 0.605114 (Simulation time: 1 hr 48 min 39 sec) 
Heartbeat CPU 0 instructions: 610000002 cycles: 1006430912 heartbeat IPC: 0.61501 cumulative IPC: 0.605273 (Simulation time: 1 hr 50 min 22 sec) 
Heartbeat CPU 0 instructions: 620000001 cycles: 1022945709 heartbeat IPC: 0.605518 cumulative IPC: 0.605277 (Simulation time: 1 hr 52 min 5 sec) 
Heartbeat CPU 0 instructions: 630000002 cycles: 1040998611 heartbeat IPC: 0.553928 cumulative IPC: 0.604387 (Simulation time: 1 hr 53 min 51 sec) 
Heartbeat CPU 0 instructions: 640000002 cycles: 1058483371 heartbeat IPC: 0.571927 cumulative IPC: 0.60385 (Simulation time: 1 hr 55 min 31 sec) 
Heartbeat CPU 0 instructions: 650000001 cycles: 1073210182 heartbeat IPC: 0.679034 cumulative IPC: 0.604882 (Simulation time: 1 hr 57 min 1 sec) 
Heartbeat CPU 0 instructions: 660000002 cycles: 1090276624 heartbeat IPC: 0.585945 cumulative IPC: 0.604586 (Simulation time: 1 hr 58 min 41 sec) 
Heartbeat CPU 0 instructions: 670000001 cycles: 1105024902 heartbeat IPC: 0.678045 cumulative IPC: 0.605566 (Simulation time: 2 hr 0 min 8 sec) 
Heartbeat CPU 0 instructions: 680000003 cycles: 1116443742 heartbeat IPC: 0.875746 cumulative IPC: 0.60833 (Simulation time: 2 hr 1 min 20 sec) 
Heartbeat CPU 0 instructions: 690000000 cycles: 1127434510 heartbeat IPC: 0.909854 cumulative IPC: 0.611271 (Simulation time: 2 hr 2 min 28 sec) 
Heartbeat CPU 0 instructions: 700000000 cycles: 1138976328 heartbeat IPC: 0.866415 cumulative IPC: 0.613857 (Simulation time: 2 hr 3 min 44 sec) 
Heartbeat CPU 0 instructions: 710000000 cycles: 1154020626 heartbeat IPC: 0.664704 cumulative IPC: 0.61452 (Simulation time: 2 hr 5 min 10 sec) 
Heartbeat CPU 0 instructions: 720000003 cycles: 1171309934 heartbeat IPC: 0.578392 cumulative IPC: 0.613986 (Simulation time: 2 hr 6 min 50 sec) 
Heartbeat CPU 0 instructions: 730000002 cycles: 1187607900 heartbeat IPC: 0.613573 cumulative IPC: 0.613981 (Simulation time: 2 hr 8 min 26 sec) 
Heartbeat CPU 0 instructions: 740000004 cycles: 1206589438 heartbeat IPC: 0.526828 cumulative IPC: 0.612609 (Simulation time: 2 hr 10 min 8 sec) 
Heartbeat CPU 0 instructions: 750000000 cycles: 1224650167 heartbeat IPC: 0.553687 cumulative IPC: 0.61174 (Simulation time: 2 hr 11 min 42 sec) 
Heartbeat CPU 0 instructions: 760000000 cycles: 1244496739 heartbeat IPC: 0.503865 cumulative IPC: 0.61002 (Simulation time: 2 hr 13 min 29 sec) 
Heartbeat CPU 0 instructions: 770000002 cycles: 1264237310 heartbeat IPC: 0.506571 cumulative IPC: 0.608404 (Simulation time: 2 hr 15 min 5 sec) 
Heartbeat CPU 0 instructions: 780000001 cycles: 1283188954 heartbeat IPC: 0.527659 cumulative IPC: 0.607211 (Simulation time: 2 hr 16 min 36 sec) 
Heartbeat CPU 0 instructions: 790000001 cycles: 1304090306 heartbeat IPC: 0.478438 cumulative IPC: 0.605147 (Simulation time: 2 hr 18 min 17 sec) 
Heartbeat CPU 0 instructions: 800000001 cycles: 1325405709 heartbeat IPC: 0.469144 cumulative IPC: 0.602959 (Simulation time: 2 hr 19 min 59 sec) 
Heartbeat CPU 0 instructions: 810000004 cycles: 1346531052 heartbeat IPC: 0.473365 cumulative IPC: 0.600925 (Simulation time: 2 hr 21 min 53 sec) 
Heartbeat CPU 0 instructions: 820000002 cycles: 1366401522 heartbeat IPC: 0.503259 cumulative IPC: 0.599505 (Simulation time: 2 hr 23 min 32 sec) 
Heartbeat CPU 0 instructions: 830000003 cycles: 1386836453 heartbeat IPC: 0.489358 cumulative IPC: 0.597882 (Simulation time: 2 hr 25 min 9 sec) 
Heartbeat CPU 0 instructions: 840000004 cycles: 1404426280 heartbeat IPC: 0.56851 cumulative IPC: 0.597514 (Simulation time: 2 hr 26 min 46 sec) 
Heartbeat CPU 0 instructions: 850000004 cycles: 1424499218 heartbeat IPC: 0.498183 cumulative IPC: 0.596114 (Simulation time: 2 hr 28 min 23 sec) 
Heartbeat CPU 0 instructions: 860000003 cycles: 1444457443 heartbeat IPC: 0.501047 cumulative IPC: 0.5948 (Simulation time: 2 hr 30 min 11 sec) 
Heartbeat CPU 0 instructions: 870000002 cycles: 1463575320 heartbeat IPC: 0.523071 cumulative IPC: 0.593863 (Simulation time: 2 hr 31 min 52 sec) 
Heartbeat CPU 0 instructions: 880000001 cycles: 1480406052 heartbeat IPC: 0.594151 cumulative IPC: 0.593866 (Simulation time: 2 hr 33 min 20 sec) 
Heartbeat CPU 0 instructions: 890000001 cycles: 1494816957 heartbeat IPC: 0.693919 cumulative IPC: 0.594831 (Simulation time: 2 hr 34 min 51 sec) 
Heartbeat CPU 0 instructions: 900000003 cycles: 1511269387 heartbeat IPC: 0.607813 cumulative IPC: 0.594972 (Simulation time: 2 hr 36 min 25 sec) 
Heartbeat CPU 0 instructions: 910000000 cycles: 1528368982 heartbeat IPC: 0.584809 cumulative IPC: 0.594858 (Simulation time: 2 hr 37 min 59 sec) 
Heartbeat CPU 0 instructions: 920000002 cycles: 1545509767 heartbeat IPC: 0.583404 cumulative IPC: 0.594731 (Simulation time: 2 hr 39 min 24 sec) 
Heartbeat CPU 0 instructions: 930000000 cycles: 1562280387 heartbeat IPC: 0.596281 cumulative IPC: 0.594748 (Simulation time: 2 hr 41 min 0 sec) 
Heartbeat CPU 0 instructions: 940000003 cycles: 1580380934 heartbeat IPC: 0.55247 cumulative IPC: 0.594264 (Simulation time: 2 hr 42 min 35 sec) 
Heartbeat CPU 0 instructions: 950000002 cycles: 1598677082 heartbeat IPC: 0.546563 cumulative IPC: 0.593718 (Simulation time: 2 hr 44 min 9 sec) 
Heartbeat CPU 0 instructions: 960000000 cycles: 1617214634 heartbeat IPC: 0.539445 cumulative IPC: 0.593095 (Simulation time: 2 hr 45 min 32 sec) 
Heartbeat CPU 0 instructions: 970000004 cycles: 1633406466 heartbeat IPC: 0.617596 cumulative IPC: 0.593338 (Simulation time: 2 hr 46 min 57 sec) 
Heartbeat CPU 0 instructions: 980000004 cycles: 1649940557 heartbeat IPC: 0.604811 cumulative IPC: 0.593453 (Simulation time: 2 hr 48 min 26 sec) 
Heartbeat CPU 0 instructions: 990000000 cycles: 1668070227 heartbeat IPC: 0.551582 cumulative IPC: 0.592998 (Simulation time: 2 hr 49 min 51 sec) 
Heartbeat CPU 0 instructions: 1000000002 cycles: 1687339948 heartbeat IPC: 0.518949 cumulative IPC: 0.592152 (Simulation time: 2 hr 51 min 28 sec) 
Finished CPU 0 instructions: 1000000003 cycles: 1688639578 cumulative IPC: 0.592193 (Simulation time: 2 hr 51 min 36 sec) 

ChampSim completed all CPUs

Region of Interest Statistics

CPU 0 cumulative IPC: 0.592193 instructions: 1000000003 cycles: 1688639578
cpu0_DTLB TOTAL     ACCESS:  185962151  HIT:  184672795  MISS:    1289356
cpu0_DTLB LOAD      ACCESS:  174056202  HIT:  172836833  MISS:    1219369
cpu0_DTLB RFO       ACCESS:   11905949  HIT:   11835962  MISS:      69987
cpu0_DTLB PREFETCH  ACCESS:          0  HIT:          0  MISS:          0
cpu0_DTLB WRITEBACK ACCESS:          0  HIT:          0  MISS:          0
cpu0_DTLB TRANSLATION ACCESS:          0  HIT:          0  MISS:          0
cpu0_DTLB PREFETCH  REQUESTED:          0  ISSUED:          0  USEFUL:          0  USELESS:          0
cpu0_DTLB AVERAGE MISS LATENCY: 11.9822 cycles
cpu0_ITLB TOTAL     ACCESS:   55717808  HIT:   55717764  MISS:         44
cpu0_ITLB LOAD      ACCESS:   55717808  HIT:   55717764  MISS:         44
cpu0_ITLB RFO       ACCESS:          0  HIT:          0  MISS:          0
cpu0_ITLB PREFETCH  ACCESS:          0  HIT:          0  MISS:          0
cpu0_ITLB WRITEBACK ACCESS:          0  HIT:          0  MISS:          0
cpu0_ITLB TRANSLATION ACCESS:          0  HIT:          0  MISS:          0
cpu0_ITLB PREFETCH  REQUESTED:          0  ISSUED:          0  USEFUL:          0  USELESS:          0
cpu0_ITLB AVERAGE MISS LATENCY: 199.114 cycles
cpu0_L1I TOTAL     ACCESS:    2290261  HIT:    2288132  MISS:       2129
cpu0_L1I LOAD      ACCESS:    2290261  HIT:    2288132  MISS:       2129
cpu0_L1I RFO       ACCESS:          0  HIT:          0  MISS:          0
cpu0_L1I PREFETCH  ACCESS:          0  HIT:          0  MISS:          0
cpu0_L1I WRITEBACK ACCESS:          0  HIT:          0  MISS:          0
cpu0_L1I TRANSLATION ACCESS:          0  HIT:          0  MISS:          0
cpu0_L1I PREFETCH  REQUESTED:          0  ISSUED:          0  USEFUL:          0  USELESS:          0
cpu0_L1I AVERAGE MISS LATENCY: 374.021 cycles
cpu0_STLB TOTAL     ACCESS:    1289400  HIT:     898150  MISS:     391250
cpu0_STLB LOAD      ACCESS:    1219413  HIT:     838308  MISS:     381105
cpu0_STLB RFO       ACCESS:      69987  HIT:      59842  MISS:      10145
cpu0_STLB PREFETCH  ACCESS:          0  HIT:          0  MISS:          0
cpu0_STLB WRITEBACK ACCESS:          0  HIT:          0  MISS:          0
cpu0_STLB TRANSLATION ACCESS:          0  HIT:          0  MISS:          0
cpu0_STLB PREFETCH  REQUESTED:          0  ISSUED:          0  USEFUL:          0  USELESS:          0
cpu0_STLB AVERAGE MISS LATENCY: 9.7122 cycles
cpu0_L1D TOTAL     ACCESS:  268985030  HIT:  250309909  MISS:   18675121
cpu0_L1D LOAD      ACCESS:  150132924  HIT:  141190815  MISS:    8942109
cpu0_L1D RFO       ACCESS:   16536758  HIT:   15304189  MISS:    1232569
cpu0_L1D PREFETCH  ACCESS:  101947606  HIT:   93467149  MISS:    8480457
cpu0_L1D WRITEBACK ACCESS:          0  HIT:          0  MISS:          0
cpu0_L1D TRANSLATION ACCESS:     367742  HIT:     347756  MISS:      19986
cpu0_L1D PREFETCH  REQUESTED:  168073192  ISSUED:  161429221  USEFUL:   11365566  USELESS:    2071797
cpu0_L1D AVERAGE MISS LATENCY: 182.14 cycles
cpu0_L2C TOTAL     ACCESS:   22562766  HIT:    7574778  MISS:   14987988
cpu0_L2C LOAD      ACCESS:    3987362  HIT:    1749165  MISS:    2238197
cpu0_L2C RFO       ACCESS:    1232207  HIT:     139015  MISS:    1093192
cpu0_L2C PREFETCH  ACCESS:   15745449  HIT:    4097795  MISS:   11647654
cpu0_L2C WRITEBACK ACCESS:    1577762  HIT:    1573454  MISS:       4308
cpu0_L2C TRANSLATION ACCESS:      19986  HIT:      15349  MISS:       4637
cpu0_L2C PREFETCH  REQUESTED:    2595564  ISSUED:    2581298  USEFUL:     167146  USELESS:     122042
cpu0_L2C AVERAGE MISS LATENCY: 387.262 cycles
LLC TOTAL     ACCESS:   16369306  HIT:    5389285  MISS:   10980021
LLC LOAD      ACCESS:    2238150  HIT:     705290  MISS:    1532860
LLC RFO       ACCESS:    1093191  HIT:     812733  MISS:     280458
LLC PREFETCH  ACCESS:   11650104  HIT:    2491825  MISS:    9158279
LLC WRITEBACK ACCESS:    1383224  HIT:    1374938  MISS:       8286
LLC TRANSLATION ACCESS:       4637  HIT:       4499  MISS:        138
LLC PREFETCH  REQUESTED:          0  ISSUED:          0  USEFUL:          0  USELESS:          0
LLC AVERAGE MISS LATENCY: 491.93 cycles

DRAM Statistics
 CHANNEL 0
 RQ ROW_BUFFER_HIT:     632639  ROW_BUFFER_MISS:   10332522
 DBUS AVG_CONGESTED_CYCLE:     3.8936
 WQ ROW_BUFFER_HIT:      26618  ROW_BUFFER_MISS:     361065  FULL:          0


CPU 0 Branch Prediction Accuracy: 95.7035% MPKI: 3.87839 Average ROB Occupancy at Mispredict: 88.7061
Branch type MPKI
BRANCH_DIRECT_JUMP: 0.000137
BRANCH_INDIRECT: 9.3e-05
BRANCH_CONDITIONAL: 3.87768
BRANCH_DIRECT_CALL: 0.000211
BRANCH_INDIRECT_CALL: 8.1e-05
BRANCH_RETURN: 0.000197

