
*** ChampSim Multicore Out-of-Order Simulator ***

Warmup Instructions: 1000000
Simulation Instructions: 1000000000
Number of CPUs: 1
Off-chip DRAM Size: 4 GiB Channels: 1 Width: 64-bit Data Rate: 3200 MT/s

VirtualMemory physical capacity: 8588881920 num_ppages: 2096895
VirtualMemory page size: 4096 log2_page_size: 12

CPU 0 runs tracer/pin/traces/spec2k6/456.hmmer-191B.champsimtrace.xz
Basic BTB sets: 1024 ways: 8 indirect buffer size: 4096 RAS size: 64
cpu0_L1D next line prefetcher
cpu0_L2C IP-based stride prefetcher
WARNING: The extended signature CACHE::prefetch_line(ip, base_addr, pf_addr, fill_this_level, prefetch_metadata) is deprecated.
WARNING: Use CACHE::prefetch_line(pf_addr, fill_this_level, prefetch_metadata) instead.

Warmup complete CPU 0 instructions: 1000001 cycles: 395026 (Simulation time: 0 hr 0 min 4 sec) 

Heartbeat CPU 0 instructions: 10000001 cycles: 5584969 heartbeat IPC: 1.79052 cumulative IPC: 1.73412 (Simulation time: 0 hr 0 min 49 sec) 
Heartbeat CPU 0 instructions: 20000001 cycles: 14607771 heartbeat IPC: 1.1083 cumulative IPC: 1.33683 (Simulation time: 0 hr 1 min 50 sec) 
Heartbeat CPU 0 instructions: 30000001 cycles: 25374291 heartbeat IPC: 0.928805 cumulative IPC: 1.16096 (Simulation time: 0 hr 3 min 1 sec) 
Heartbeat CPU 0 instructions: 40000002 cycles: 35465590 heartbeat IPC: 0.990953 cumulative IPC: 1.11204 (Simulation time: 0 hr 4 min 13 sec) 
Heartbeat CPU 0 instructions: 50000001 cycles: 41223056 heartbeat IPC: 1.73688 cumulative IPC: 1.20016 (Simulation time: 0 hr 5 min 7 sec) 
Heartbeat CPU 0 instructions: 60000003 cycles: 45683119 heartbeat IPC: 2.24212 cumulative IPC: 1.30277 (Simulation time: 0 hr 6 min 0 sec) 
Heartbeat CPU 0 instructions: 70000002 cycles: 50298607 heartbeat IPC: 2.16662 cumulative IPC: 1.38267 (Simulation time: 0 hr 6 min 53 sec) 
Heartbeat CPU 0 instructions: 80000001 cycles: 54733788 heartbeat IPC: 2.2547 cumulative IPC: 1.45384 (Simulation time: 0 hr 7 min 44 sec) 
Heartbeat CPU 0 instructions: 90000000 cycles: 59174884 heartbeat IPC: 2.2517 cumulative IPC: 1.51412 (Simulation time: 0 hr 8 min 39 sec) 
Heartbeat CPU 0 instructions: 100000001 cycles: 63635636 heartbeat IPC: 2.24177 cumulative IPC: 1.56545 (Simulation time: 0 hr 9 min 31 sec) 
Heartbeat CPU 0 instructions: 110000003 cycles: 68722839 heartbeat IPC: 1.96572 cumulative IPC: 1.59525 (Simulation time: 0 hr 10 min 28 sec) 
Heartbeat CPU 0 instructions: 120000003 cycles: 73315345 heartbeat IPC: 2.17746 cumulative IPC: 1.63192 (Simulation time: 0 hr 11 min 21 sec) 
Heartbeat CPU 0 instructions: 130000001 cycles: 77825277 heartbeat IPC: 2.21733 cumulative IPC: 1.66602 (Simulation time: 0 hr 12 min 14 sec) 
Heartbeat CPU 0 instructions: 140000004 cycles: 82272490 heartbeat IPC: 2.2486 cumulative IPC: 1.69766 (Simulation time: 0 hr 13 min 6 sec) 
Heartbeat CPU 0 instructions: 150000000 cycles: 86705256 heartbeat IPC: 2.25593 cumulative IPC: 1.72633 (Simulation time: 0 hr 14 min 0 sec) 
Heartbeat CPU 0 instructions: 160000002 cycles: 91436537 heartbeat IPC: 2.11359 cumulative IPC: 1.74646 (Simulation time: 0 hr 14 min 55 sec) 
Heartbeat CPU 0 instructions: 170000002 cycles: 95954699 heartbeat IPC: 2.21329 cumulative IPC: 1.76853 (Simulation time: 0 hr 15 min 49 sec) 
Heartbeat CPU 0 instructions: 180000000 cycles: 102989885 heartbeat IPC: 1.42143 cumulative IPC: 1.74473 (Simulation time: 0 hr 16 min 56 sec) 
Heartbeat CPU 0 instructions: 190000004 cycles: 108436641 heartbeat IPC: 1.83596 cumulative IPC: 1.74933 (Simulation time: 0 hr 17 min 59 sec) 
Heartbeat CPU 0 instructions: 200000000 cycles: 113303297 heartbeat IPC: 2.0548 cumulative IPC: 1.76249 (Simulation time: 0 hr 19 min 1 sec) 
Heartbeat CPU 0 instructions: 210000002 cycles: 120153859 heartbeat IPC: 1.45973 cumulative IPC: 1.74517 (Simulation time: 0 hr 20 min 11 sec) 
Heartbeat CPU 0 instructions: 220000004 cycles: 130027928 heartbeat IPC: 1.01275 cumulative IPC: 1.68939 (Simulation time: 0 hr 21 min 36 sec) 
Heartbeat CPU 0 instructions: 230000003 cycles: 137581714 heartbeat IPC: 1.32384 cumulative IPC: 1.66926 (Simulation time: 0 hr 22 min 51 sec) 
Heartbeat CPU 0 instructions: 240000000 cycles: 142462412 heartbeat IPC: 2.04889 cumulative IPC: 1.6823 (Simulation time: 0 hr 23 min 54 sec) 
Heartbeat CPU 0 instructions: 250000000 cycles: 146966247 heartbeat IPC: 2.22033 cumulative IPC: 1.69883 (Simulation time: 0 hr 24 min 55 sec) 
Heartbeat CPU 0 instructions: 260000000 cycles: 151447337 heartbeat IPC: 2.2316 cumulative IPC: 1.71464 (Simulation time: 0 hr 25 min 53 sec) 
Heartbeat CPU 0 instructions: 270000000 cycles: 155989728 heartbeat IPC: 2.20148 cumulative IPC: 1.72885 (Simulation time: 0 hr 26 min 53 sec) 
Heartbeat CPU 0 instructions: 280000003 cycles: 163643886 heartbeat IPC: 1.30648 cumulative IPC: 1.70905 (Simulation time: 0 hr 28 min 11 sec) 
Heartbeat CPU 0 instructions: 290000002 cycles: 172721439 heartbeat IPC: 1.10162 cumulative IPC: 1.67705 (Simulation time: 0 hr 29 min 36 sec) 
Heartbeat CPU 0 instructions: 300000002 cycles: 179006304 heartbeat IPC: 1.59112 cumulative IPC: 1.67403 (Simulation time: 0 hr 30 min 51 sec) 
Heartbeat CPU 0 instructions: 310000004 cycles: 183656104 heartbeat IPC: 2.15063 cumulative IPC: 1.68612 (Simulation time: 0 hr 31 min 58 sec) 
Heartbeat CPU 0 instructions: 320000001 cycles: 188185784 heartbeat IPC: 2.20766 cumulative IPC: 1.6987 (Simulation time: 0 hr 33 min 2 sec) 
Heartbeat CPU 0 instructions: 330000003 cycles: 195704342 heartbeat IPC: 1.33004 cumulative IPC: 1.68451 (Simulation time: 0 hr 34 min 21 sec) 
Heartbeat CPU 0 instructions: 340000000 cycles: 205629107 heartbeat IPC: 1.00758 cumulative IPC: 1.65177 (Simulation time: 0 hr 35 min 53 sec) 
Heartbeat CPU 0 instructions: 350000002 cycles: 212466595 heartbeat IPC: 1.46253 cumulative IPC: 1.64567 (Simulation time: 0 hr 37 min 10 sec) 
Heartbeat CPU 0 instructions: 360000004 cycles: 216948518 heartbeat IPC: 2.23119 cumulative IPC: 1.65779 (Simulation time: 0 hr 38 min 15 sec) 
Heartbeat CPU 0 instructions: 370000001 cycles: 221607044 heartbeat IPC: 2.1466 cumulative IPC: 1.66808 (Simulation time: 0 hr 39 min 21 sec) 
Heartbeat CPU 0 instructions: 380000003 cycles: 226729674 heartbeat IPC: 1.95212 cumulative IPC: 1.67451 (Simulation time: 0 hr 40 min 32 sec) 
Heartbeat CPU 0 instructions: 390000003 cycles: 231476430 heartbeat IPC: 2.1067 cumulative IPC: 1.68339 (Simulation time: 0 hr 41 min 43 sec) 
Heartbeat CPU 0 instructions: 400000000 cycles: 236252107 heartbeat IPC: 2.09394 cumulative IPC: 1.6917 (Simulation time: 0 hr 42 min 53 sec) 
Heartbeat CPU 0 instructions: 410000004 cycles: 241264031 heartbeat IPC: 1.99524 cumulative IPC: 1.69802 (Simulation time: 0 hr 44 min 7 sec) 
Heartbeat CPU 0 instructions: 420000001 cycles: 246455513 heartbeat IPC: 1.92623 cumulative IPC: 1.70283 (Simulation time: 0 hr 45 min 20 sec) 
Heartbeat CPU 0 instructions: 430000001 cycles: 251672957 heartbeat IPC: 1.91665 cumulative IPC: 1.70727 (Simulation time: 0 hr 46 min 34 sec) 
Heartbeat CPU 0 instructions: 440000000 cycles: 256330990 heartbeat IPC: 2.14683 cumulative IPC: 1.71527 (Simulation time: 0 hr 47 min 45 sec) 
Heartbeat CPU 0 instructions: 450000002 cycles: 260800883 heartbeat IPC: 2.23719 cumulative IPC: 1.72423 (Simulation time: 0 hr 48 min 55 sec) 
Heartbeat CPU 0 instructions: 460000000 cycles: 265900628 heartbeat IPC: 1.96088 cumulative IPC: 1.72878 (Simulation time: 0 hr 50 min 7 sec) 
Heartbeat CPU 0 instructions: 470000004 cycles: 270528990 heartbeat IPC: 2.16059 cumulative IPC: 1.73618 (Simulation time: 0 hr 51 min 17 sec) 
Heartbeat CPU 0 instructions: 480000004 cycles: 274991750 heartbeat IPC: 2.24077 cumulative IPC: 1.74438 (Simulation time: 0 hr 52 min 27 sec) 
Heartbeat CPU 0 instructions: 490000003 cycles: 279452404 heartbeat IPC: 2.24182 cumulative IPC: 1.75233 (Simulation time: 0 hr 53 min 35 sec) 
Heartbeat CPU 0 instructions: 500000002 cycles: 283927822 heartbeat IPC: 2.23443 cumulative IPC: 1.75994 (Simulation time: 0 hr 54 min 44 sec) 
Heartbeat CPU 0 instructions: 510000000 cycles: 288460531 heartbeat IPC: 2.20619 cumulative IPC: 1.76696 (Simulation time: 0 hr 55 min 52 sec) 
Heartbeat CPU 0 instructions: 520000000 cycles: 293526602 heartbeat IPC: 1.97392 cumulative IPC: 1.77054 (Simulation time: 0 hr 57 min 2 sec) 
Heartbeat CPU 0 instructions: 530000004 cycles: 298154134 heartbeat IPC: 2.16098 cumulative IPC: 1.7766 (Simulation time: 0 hr 58 min 10 sec) 
Heartbeat CPU 0 instructions: 540000002 cycles: 302627807 heartbeat IPC: 2.2353 cumulative IPC: 1.78339 (Simulation time: 0 hr 59 min 17 sec) 
Heartbeat CPU 0 instructions: 550000003 cycles: 307104396 heartbeat IPC: 2.23384 cumulative IPC: 1.78997 (Simulation time: 1 hr 0 min 27 sec) 
Heartbeat CPU 0 instructions: 560000001 cycles: 311564346 heartbeat IPC: 2.24218 cumulative IPC: 1.79645 (Simulation time: 1 hr 1 min 36 sec) 
Heartbeat CPU 0 instructions: 570000004 cycles: 316140802 heartbeat IPC: 2.1851 cumulative IPC: 1.80208 (Simulation time: 1 hr 2 min 44 sec) 
Heartbeat CPU 0 instructions: 580000002 cycles: 320938171 heartbeat IPC: 2.08448 cumulative IPC: 1.80631 (Simulation time: 1 hr 3 min 54 sec) 
Heartbeat CPU 0 instructions: 590000000 cycles: 325533839 heartbeat IPC: 2.17596 cumulative IPC: 1.81153 (Simulation time: 1 hr 5 min 1 sec) 
Heartbeat CPU 0 instructions: 600000001 cycles: 330039220 heartbeat IPC: 2.21957 cumulative IPC: 1.81711 (Simulation time: 1 hr 6 min 6 sec) 
Heartbeat CPU 0 instructions: 610000003 cycles: 334579167 heartbeat IPC: 2.20267 cumulative IPC: 1.82235 (Simulation time: 1 hr 7 min 11 sec) 
Heartbeat CPU 0 instructions: 620000003 cycles: 339084379 heartbeat IPC: 2.21965 cumulative IPC: 1.82763 (Simulation time: 1 hr 8 min 12 sec) 
Heartbeat CPU 0 instructions: 630000001 cycles: 343594198 heartbeat IPC: 2.21738 cumulative IPC: 1.83275 (Simulation time: 1 hr 9 min 16 sec) 
Heartbeat CPU 0 instructions: 640000002 cycles: 348095477 heartbeat IPC: 2.22159 cumulative IPC: 1.83779 (Simulation time: 1 hr 10 min 20 sec) 
Heartbeat CPU 0 instructions: 650000000 cycles: 352595346 heartbeat IPC: 2.22229 cumulative IPC: 1.8427 (Simulation time: 1 hr 11 min 25 sec) 
Heartbeat CPU 0 instructions: 660000004 cycles: 357066103 heartbeat IPC: 2.23676 cumulative IPC: 1.84764 (Simulation time: 1 hr 12 min 30 sec) 
Heartbeat CPU 0 instructions: 670000001 cycles: 361540434 heartbeat IPC: 2.23497 cumulative IPC: 1.85244 (Simulation time: 1 hr 13 min 36 sec) 
Heartbeat CPU 0 instructions: 680000001 cycles: 366024186 heartbeat IPC: 2.23027 cumulative IPC: 1.85707 (Simulation time: 1 hr 14 min 41 sec) 
Heartbeat CPU 0 instructions: 690000001 cycles: 370515916 heartbeat IPC: 2.22631 cumulative IPC: 1.86155 (Simulation time: 1 hr 15 min 45 sec) 
Heartbeat CPU 0 instructions: 700000001 cycles: 375386096 heartbeat IPC: 2.05331 cumulative IPC: 1.86404 (Simulation time: 1 hr 16 min 52 sec) 
Heartbeat CPU 0 instructions: 710000001 cycles: 380083565 heartbeat IPC: 2.12881 cumulative IPC: 1.86732 (Simulation time: 1 hr 17 min 58 sec) 
Heartbeat CPU 0 instructions: 720000003 cycles: 384597294 heartbeat IPC: 2.21546 cumulative IPC: 1.87141 (Simulation time: 1 hr 19 min 4 sec) 
Heartbeat CPU 0 instructions: 730000000 cycles: 389093113 heartbeat IPC: 2.22429 cumulative IPC: 1.87549 (Simulation time: 1 hr 20 min 11 sec) 
Heartbeat CPU 0 instructions: 740000004 cycles: 393584954 heartbeat IPC: 2.22626 cumulative IPC: 1.8795 (Simulation time: 1 hr 21 min 18 sec) 
Heartbeat CPU 0 instructions: 750000001 cycles: 398073905 heartbeat IPC: 2.22769 cumulative IPC: 1.88343 (Simulation time: 1 hr 22 min 19 sec) 
Heartbeat CPU 0 instructions: 760000002 cycles: 402563817 heartbeat IPC: 2.22722 cumulative IPC: 1.88727 (Simulation time: 1 hr 23 min 23 sec) 
Heartbeat CPU 0 instructions: 770000000 cycles: 407031186 heartbeat IPC: 2.23845 cumulative IPC: 1.89113 (Simulation time: 1 hr 24 min 27 sec) 
Heartbeat CPU 0 instructions: 780000002 cycles: 411494456 heartbeat IPC: 2.24051 cumulative IPC: 1.89492 (Simulation time: 1 hr 25 min 29 sec) 
Heartbeat CPU 0 instructions: 790000001 cycles: 415978241 heartbeat IPC: 2.23026 cumulative IPC: 1.89854 (Simulation time: 1 hr 26 min 31 sec) 
Heartbeat CPU 0 instructions: 800000001 cycles: 420471187 heartbeat IPC: 2.22571 cumulative IPC: 1.90204 (Simulation time: 1 hr 27 min 31 sec) 
Heartbeat CPU 0 instructions: 810000002 cycles: 424973288 heartbeat IPC: 2.22119 cumulative IPC: 1.90542 (Simulation time: 1 hr 28 min 33 sec) 
Heartbeat CPU 0 instructions: 820000000 cycles: 429433339 heartbeat IPC: 2.24213 cumulative IPC: 1.90892 (Simulation time: 1 hr 29 min 33 sec) 
Heartbeat CPU 0 instructions: 830000003 cycles: 433913954 heartbeat IPC: 2.23184 cumulative IPC: 1.91226 (Simulation time: 1 hr 30 min 31 sec) 
Heartbeat CPU 0 instructions: 840000000 cycles: 441319336 heartbeat IPC: 1.35037 cumulative IPC: 1.90282 (Simulation time: 1 hr 31 min 48 sec) 
Heartbeat CPU 0 instructions: 850000003 cycles: 448939566 heartbeat IPC: 1.3123 cumulative IPC: 1.89279 (Simulation time: 1 hr 33 min 7 sec) 
Heartbeat CPU 0 instructions: 860000000 cycles: 455603367 heartbeat IPC: 1.50064 cumulative IPC: 1.88705 (Simulation time: 1 hr 34 min 17 sec) 
Heartbeat CPU 0 instructions: 870000002 cycles: 463683708 heartbeat IPC: 1.23757 cumulative IPC: 1.87572 (Simulation time: 1 hr 35 min 38 sec) 
Heartbeat CPU 0 instructions: 880000002 cycles: 470560698 heartbeat IPC: 1.45412 cumulative IPC: 1.86955 (Simulation time: 1 hr 36 min 52 sec) 
Heartbeat CPU 0 instructions: 890000002 cycles: 477574980 heartbeat IPC: 1.42566 cumulative IPC: 1.86303 (Simulation time: 1 hr 38 min 6 sec) 
Heartbeat CPU 0 instructions: 900000001 cycles: 482238725 heartbeat IPC: 2.1442 cumulative IPC: 1.86575 (Simulation time: 1 hr 39 min 8 sec) 
Heartbeat CPU 0 instructions: 910000000 cycles: 486668005 heartbeat IPC: 2.2577 cumulative IPC: 1.86932 (Simulation time: 1 hr 40 min 10 sec) 
Heartbeat CPU 0 instructions: 920000000 cycles: 491167067 heartbeat IPC: 2.22269 cumulative IPC: 1.87256 (Simulation time: 1 hr 41 min 13 sec) 
Heartbeat CPU 0 instructions: 930000001 cycles: 499617620 heartbeat IPC: 1.18335 cumulative IPC: 1.86089 (Simulation time: 1 hr 42 min 37 sec) 
Heartbeat CPU 0 instructions: 940000004 cycles: 504836785 heartbeat IPC: 1.91602 cumulative IPC: 1.86146 (Simulation time: 1 hr 43 min 41 sec) 
Heartbeat CPU 0 instructions: 950000000 cycles: 510783899 heartbeat IPC: 1.68149 cumulative IPC: 1.85937 (Simulation time: 1 hr 44 min 51 sec) 
Heartbeat CPU 0 instructions: 960000004 cycles: 515267789 heartbeat IPC: 2.23021 cumulative IPC: 1.8626 (Simulation time: 1 hr 45 min 57 sec) 
Heartbeat CPU 0 instructions: 970000004 cycles: 521412900 heartbeat IPC: 1.62731 cumulative IPC: 1.85982 (Simulation time: 1 hr 47 min 11 sec) 
Heartbeat CPU 0 instructions: 980000004 cycles: 527518647 heartbeat IPC: 1.6378 cumulative IPC: 1.85725 (Simulation time: 1 hr 48 min 27 sec) 
Heartbeat CPU 0 instructions: 990000000 cycles: 532272781 heartbeat IPC: 2.10343 cumulative IPC: 1.85945 (Simulation time: 1 hr 49 min 36 sec) 
Heartbeat CPU 0 instructions: 1000000000 cycles: 536775781 heartbeat IPC: 2.22074 cumulative IPC: 1.86248 (Simulation time: 1 hr 50 min 41 sec) 
Finished CPU 0 instructions: 1000000001 cycles: 536825807 cumulative IPC: 1.8628 (Simulation time: 1 hr 50 min 48 sec) 

ChampSim completed all CPUs

Region of Interest Statistics

CPU 0 cumulative IPC: 1.8628 instructions: 1000000001 cycles: 536825807
cpu0_DTLB TOTAL     ACCESS:  381675097  HIT:  381607002  MISS:      68095
cpu0_DTLB LOAD      ACCESS:  292106681  HIT:  292082419  MISS:      24262
cpu0_DTLB RFO       ACCESS:   89568416  HIT:   89524583  MISS:      43833
cpu0_DTLB PREFETCH  ACCESS:          0  HIT:          0  MISS:          0
cpu0_DTLB WRITEBACK ACCESS:          0  HIT:          0  MISS:          0
cpu0_DTLB TRANSLATION ACCESS:          0  HIT:          0  MISS:          0
cpu0_DTLB PREFETCH  REQUESTED:          0  ISSUED:          0  USEFUL:          0  USELESS:          0
cpu0_DTLB AVERAGE MISS LATENCY: 12.8666 cycles
cpu0_ITLB TOTAL     ACCESS:   15600283  HIT:   15600250  MISS:         33
cpu0_ITLB LOAD      ACCESS:   15600283  HIT:   15600250  MISS:         33
cpu0_ITLB RFO       ACCESS:          0  HIT:          0  MISS:          0
cpu0_ITLB PREFETCH  ACCESS:          0  HIT:          0  MISS:          0
cpu0_ITLB WRITEBACK ACCESS:          0  HIT:          0  MISS:          0
cpu0_ITLB TRANSLATION ACCESS:          0  HIT:          0  MISS:          0
cpu0_ITLB PREFETCH  REQUESTED:          0  ISSUED:          0  USEFUL:          0  USELESS:          0
cpu0_ITLB AVERAGE MISS LATENCY: 253.939 cycles
cpu0_L1I TOTAL     ACCESS:     825023  HIT:     824697  MISS:        326
cpu0_L1I LOAD      ACCESS:     825023  HIT:     824697  MISS:        326
cpu0_L1I RFO       ACCESS:          0  HIT:          0  MISS:          0
cpu0_L1I PREFETCH  ACCESS:          0  HIT:          0  MISS:          0
cpu0_L1I WRITEBACK ACCESS:          0  HIT:          0  MISS:          0
cpu0_L1I TRANSLATION ACCESS:          0  HIT:          0  MISS:          0
cpu0_L1I PREFETCH  REQUESTED:          0  ISSUED:          0  USEFUL:          0  USELESS:          0
cpu0_L1I AVERAGE MISS LATENCY: 551.028 cycles
cpu0_STLB TOTAL     ACCESS:      68128  HIT:      66909  MISS:       1219
cpu0_STLB LOAD      ACCESS:      24295  HIT:      24198  MISS:         97
cpu0_STLB RFO       ACCESS:      43833  HIT:      42711  MISS:       1122
cpu0_STLB PREFETCH  ACCESS:          0  HIT:          0  MISS:          0
cpu0_STLB WRITEBACK ACCESS:          0  HIT:          0  MISS:          0
cpu0_STLB TRANSLATION ACCESS:          0  HIT:          0  MISS:          0
cpu0_STLB PREFETCH  REQUESTED:          0  ISSUED:          0  USEFUL:          0  USELESS:          0
cpu0_STLB AVERAGE MISS LATENCY: 222.058 cycles
cpu0_L1D TOTAL     ACCESS:  681015699  HIT:  675552918  MISS:    5462781
cpu0_L1D LOAD      ACCESS:  319734943  HIT:  319337782  MISS:     397161
cpu0_L1D RFO       ACCESS:   69159018  HIT:   68033605  MISS:    1125413
cpu0_L1D PREFETCH  ACCESS:  292120871  HIT:  288181138  MISS:    3939733
cpu0_L1D WRITEBACK ACCESS:          0  HIT:          0  MISS:          0
cpu0_L1D TRANSLATION ACCESS:        867  HIT:        393  MISS:        474
cpu0_L1D PREFETCH  REQUESTED:  320089729  ISSUED:  295887500  USEFUL:    4091412  USELESS:      48765
cpu0_L1D AVERAGE MISS LATENCY: 101.527 cycles
cpu0_L2C TOTAL     ACCESS:    8290703  HIT:    5268569  MISS:    3022134
cpu0_L2C LOAD      ACCESS:     393127  HIT:     323480  MISS:      69647
cpu0_L2C RFO       ACCESS:     928973  HIT:       4436  MISS:     924537
cpu0_L2C PREFETCH  ACCESS:    4293577  HIT:    2266044  MISS:    2027533
cpu0_L2C WRITEBACK ACCESS:    2674552  HIT:    2674177  MISS:        375
cpu0_L2C TRANSLATION ACCESS:        474  HIT:        432  MISS:         42
cpu0_L2C PREFETCH  REQUESTED:     164918  ISSUED:     160916  USEFUL:       7596  USELESS:       7808
cpu0_L2C AVERAGE MISS LATENCY: 248.867 cycles
LLC TOTAL     ACCESS:    5682058  HIT:    4885218  MISS:     796840
LLC LOAD      ACCESS:      69646  HIT:      63750  MISS:       5896
LLC RFO       ACCESS:     924537  HIT:     661887  MISS:     262650
LLC PREFETCH  ACCESS:    2028168  HIT:    1525832  MISS:     502336
LLC WRITEBACK ACCESS:    2659665  HIT:    2633727  MISS:      25938
LLC TRANSLATION ACCESS:         42  HIT:         22  MISS:         20
LLC PREFETCH  REQUESTED:          0  ISSUED:          0  USEFUL:          0  USELESS:          0
LLC AVERAGE MISS LATENCY: 842.326 cycles

DRAM Statistics
 CHANNEL 0
 RQ ROW_BUFFER_HIT:       9060  ROW_BUFFER_MISS:     761246
 DBUS AVG_CONGESTED_CYCLE:    3.99281
 WQ ROW_BUFFER_HIT:      78260  ROW_BUFFER_MISS:     610594  FULL:        164


CPU 0 Branch Prediction Accuracy: 99.3347% MPKI: 0.294153 Average ROB Occupancy at Mispredict: 80.3146
Branch type MPKI
BRANCH_DIRECT_JUMP: 6.9e-05
BRANCH_INDIRECT: 0.000371
BRANCH_CONDITIONAL: 0.293517
BRANCH_DIRECT_CALL: 8.5e-05
BRANCH_INDIRECT_CALL: 2.7e-05
BRANCH_RETURN: 8.4e-05

