
*** ChampSim Multicore Out-of-Order Simulator ***

Warmup Instructions: 1000000
Simulation Instructions: 1000000000
Number of CPUs: 1
Off-chip DRAM Size: 4 GiB Channels: 1 Width: 64-bit Data Rate: 3200 MT/s

VirtualMemory physical capacity: 8588881920 num_ppages: 2096895
VirtualMemory page size: 4096 log2_page_size: 12

CPU 0 runs tracer/pin/traces/spec2k17/602.gcc_s-734B.champsimtrace.xz
Basic BTB sets: 1024 ways: 8 indirect buffer size: 4096 RAS size: 64
cpu0_L1D next line prefetcher
cpu0_L2C IP-based stride prefetcher
WARNING: The extended signature CACHE::prefetch_line(ip, base_addr, pf_addr, fill_this_level, prefetch_metadata) is deprecated.
WARNING: Use CACHE::prefetch_line(pf_addr, fill_this_level, prefetch_metadata) instead.

Warmup complete CPU 0 instructions: 1000002 cycles: 250071 (Simulation time: 0 hr 0 min 3 sec) 

Heartbeat CPU 0 instructions: 10000000 cycles: 11702795 heartbeat IPC: 0.854497 cumulative IPC: 0.785839 (Simulation time: 0 hr 0 min 53 sec) 
Heartbeat CPU 0 instructions: 20000002 cycles: 24802205 heartbeat IPC: 0.763393 cumulative IPC: 0.773863 (Simulation time: 0 hr 1 min 52 sec) 
Heartbeat CPU 0 instructions: 30000003 cycles: 40464396 heartbeat IPC: 0.63848 cumulative IPC: 0.721136 (Simulation time: 0 hr 2 min 59 sec) 
Heartbeat CPU 0 instructions: 40000000 cycles: 58121517 heartbeat IPC: 0.566344 cumulative IPC: 0.673907 (Simulation time: 0 hr 4 min 11 sec) 
Heartbeat CPU 0 instructions: 50000000 cycles: 75265656 heartbeat IPC: 0.58329 cumulative IPC: 0.653198 (Simulation time: 0 hr 5 min 23 sec) 
Heartbeat CPU 0 instructions: 60000000 cycles: 92335561 heartbeat IPC: 0.585826 cumulative IPC: 0.640709 (Simulation time: 0 hr 6 min 34 sec) 
Heartbeat CPU 0 instructions: 70000003 cycles: 108955789 heartbeat IPC: 0.601677 cumulative IPC: 0.634741 (Simulation time: 0 hr 7 min 46 sec) 
Heartbeat CPU 0 instructions: 80000000 cycles: 126151204 heartbeat IPC: 0.58155 cumulative IPC: 0.627476 (Simulation time: 0 hr 8 min 57 sec) 
Heartbeat CPU 0 instructions: 90000000 cycles: 143309511 heartbeat IPC: 0.582808 cumulative IPC: 0.622119 (Simulation time: 0 hr 10 min 10 sec) 
Heartbeat CPU 0 instructions: 100000002 cycles: 182180119 heartbeat IPC: 0.257264 cumulative IPC: 0.544165 (Simulation time: 0 hr 13 min 22 sec) 
Heartbeat CPU 0 instructions: 110000000 cycles: 199651200 heartbeat IPC: 0.572374 cumulative IPC: 0.546637 (Simulation time: 0 hr 14 min 34 sec) 
Heartbeat CPU 0 instructions: 120000001 cycles: 216694743 heartbeat IPC: 0.586733 cumulative IPC: 0.549794 (Simulation time: 0 hr 15 min 46 sec) 
Heartbeat CPU 0 instructions: 130000001 cycles: 234918847 heartbeat IPC: 0.548724 cumulative IPC: 0.549711 (Simulation time: 0 hr 17 min 11 sec) 
Heartbeat CPU 0 instructions: 140000000 cycles: 250851736 heartbeat IPC: 0.627632 cumulative IPC: 0.554665 (Simulation time: 0 hr 18 min 19 sec) 
Heartbeat CPU 0 instructions: 150000000 cycles: 264566164 heartbeat IPC: 0.729159 cumulative IPC: 0.563719 (Simulation time: 0 hr 19 min 22 sec) 
Heartbeat CPU 0 instructions: 160000002 cycles: 277503065 heartbeat IPC: 0.772983 cumulative IPC: 0.573483 (Simulation time: 0 hr 20 min 25 sec) 
Heartbeat CPU 0 instructions: 170000003 cycles: 292711442 heartbeat IPC: 0.657532 cumulative IPC: 0.577854 (Simulation time: 0 hr 21 min 32 sec) 
Heartbeat CPU 0 instructions: 180000003 cycles: 310180538 heartbeat IPC: 0.572439 cumulative IPC: 0.577549 (Simulation time: 0 hr 22 min 45 sec) 
Heartbeat CPU 0 instructions: 190000000 cycles: 341815815 heartbeat IPC: 0.316103 cumulative IPC: 0.553334 (Simulation time: 0 hr 24 min 29 sec) 
Heartbeat CPU 0 instructions: 200000000 cycles: 362826094 heartbeat IPC: 0.475958 cumulative IPC: 0.54885 (Simulation time: 0 hr 25 min 49 sec) 
Heartbeat CPU 0 instructions: 210000000 cycles: 380054126 heartbeat IPC: 0.580449 cumulative IPC: 0.550284 (Simulation time: 0 hr 26 min 59 sec) 
Heartbeat CPU 0 instructions: 220000001 cycles: 397455818 heartbeat IPC: 0.574657 cumulative IPC: 0.551352 (Simulation time: 0 hr 28 min 10 sec) 
Heartbeat CPU 0 instructions: 230000002 cycles: 414637011 heartbeat IPC: 0.582032 cumulative IPC: 0.552624 (Simulation time: 0 hr 29 min 19 sec) 
Heartbeat CPU 0 instructions: 240000001 cycles: 431765115 heartbeat IPC: 0.583836 cumulative IPC: 0.553863 (Simulation time: 0 hr 30 min 29 sec) 
Heartbeat CPU 0 instructions: 250000000 cycles: 447913496 heartbeat IPC: 0.619257 cumulative IPC: 0.556221 (Simulation time: 0 hr 31 min 39 sec) 
Heartbeat CPU 0 instructions: 260000000 cycles: 465092037 heartbeat IPC: 0.582122 cumulative IPC: 0.557179 (Simulation time: 0 hr 32 min 52 sec) 
Heartbeat CPU 0 instructions: 270000000 cycles: 481798424 heartbeat IPC: 0.598573 cumulative IPC: 0.558615 (Simulation time: 0 hr 34 min 6 sec) 
Heartbeat CPU 0 instructions: 280000001 cycles: 499358997 heartbeat IPC: 0.569458 cumulative IPC: 0.558996 (Simulation time: 0 hr 35 min 19 sec) 
Heartbeat CPU 0 instructions: 290000000 cycles: 516628286 heartbeat IPC: 0.579063 cumulative IPC: 0.559667 (Simulation time: 0 hr 36 min 30 sec) 
Heartbeat CPU 0 instructions: 300000002 cycles: 534020081 heartbeat IPC: 0.574984 cumulative IPC: 0.560166 (Simulation time: 0 hr 37 min 43 sec) 
Heartbeat CPU 0 instructions: 310000003 cycles: 551212465 heartbeat IPC: 0.581653 cumulative IPC: 0.560837 (Simulation time: 0 hr 38 min 55 sec) 
Heartbeat CPU 0 instructions: 320000000 cycles: 568432182 heartbeat IPC: 0.580729 cumulative IPC: 0.56144 (Simulation time: 0 hr 40 min 7 sec) 
Heartbeat CPU 0 instructions: 330000001 cycles: 583614206 heartbeat IPC: 0.658674 cumulative IPC: 0.56397 (Simulation time: 0 hr 41 min 15 sec) 
Heartbeat CPU 0 instructions: 340000004 cycles: 600786224 heartbeat IPC: 0.582343 cumulative IPC: 0.564496 (Simulation time: 0 hr 42 min 28 sec) 
Heartbeat CPU 0 instructions: 350000002 cycles: 617968524 heartbeat IPC: 0.581994 cumulative IPC: 0.564982 (Simulation time: 0 hr 43 min 40 sec) 
Heartbeat CPU 0 instructions: 360000001 cycles: 634456085 heartbeat IPC: 0.606518 cumulative IPC: 0.566062 (Simulation time: 0 hr 44 min 49 sec) 
Heartbeat CPU 0 instructions: 370000001 cycles: 651764603 heartbeat IPC: 0.57775 cumulative IPC: 0.566373 (Simulation time: 0 hr 46 min 2 sec) 
Heartbeat CPU 0 instructions: 380000000 cycles: 669029670 heartbeat IPC: 0.579204 cumulative IPC: 0.566704 (Simulation time: 0 hr 47 min 14 sec) 
Heartbeat CPU 0 instructions: 390000000 cycles: 684660746 heartbeat IPC: 0.639751 cumulative IPC: 0.568372 (Simulation time: 0 hr 48 min 25 sec) 
Heartbeat CPU 0 instructions: 400000003 cycles: 702346701 heartbeat IPC: 0.565421 cumulative IPC: 0.568298 (Simulation time: 0 hr 49 min 39 sec) 
Heartbeat CPU 0 instructions: 410000001 cycles: 719500627 heartbeat IPC: 0.582957 cumulative IPC: 0.568647 (Simulation time: 0 hr 50 min 50 sec) 
Heartbeat CPU 0 instructions: 420000001 cycles: 738109277 heartbeat IPC: 0.537385 cumulative IPC: 0.567859 (Simulation time: 0 hr 52 min 6 sec) 
Heartbeat CPU 0 instructions: 430000002 cycles: 755553523 heartbeat IPC: 0.573255 cumulative IPC: 0.567984 (Simulation time: 0 hr 53 min 20 sec) 
Heartbeat CPU 0 instructions: 440000001 cycles: 772673891 heartbeat IPC: 0.5841 cumulative IPC: 0.568341 (Simulation time: 0 hr 54 min 32 sec) 
Heartbeat CPU 0 instructions: 450000000 cycles: 789051067 heartbeat IPC: 0.610606 cumulative IPC: 0.569218 (Simulation time: 0 hr 55 min 42 sec) 
Heartbeat CPU 0 instructions: 460000000 cycles: 806220066 heartbeat IPC: 0.582445 cumulative IPC: 0.5695 (Simulation time: 0 hr 56 min 55 sec) 
Heartbeat CPU 0 instructions: 470000001 cycles: 823610256 heartbeat IPC: 0.575037 cumulative IPC: 0.569617 (Simulation time: 0 hr 58 min 8 sec) 
Heartbeat CPU 0 instructions: 480000001 cycles: 840633375 heartbeat IPC: 0.587436 cumulative IPC: 0.569978 (Simulation time: 0 hr 59 min 22 sec) 
Heartbeat CPU 0 instructions: 490000000 cycles: 857723996 heartbeat IPC: 0.585116 cumulative IPC: 0.57028 (Simulation time: 1 hr 0 min 34 sec) 
Heartbeat CPU 0 instructions: 500000002 cycles: 874550232 heartbeat IPC: 0.59431 cumulative IPC: 0.570742 (Simulation time: 1 hr 1 min 47 sec) 
Heartbeat CPU 0 instructions: 510000001 cycles: 891646798 heartbeat IPC: 0.584913 cumulative IPC: 0.571014 (Simulation time: 1 hr 2 min 59 sec) 
Heartbeat CPU 0 instructions: 520000002 cycles: 908908076 heartbeat IPC: 0.579331 cumulative IPC: 0.571172 (Simulation time: 1 hr 4 min 12 sec) 
Heartbeat CPU 0 instructions: 530000001 cycles: 925026826 heartbeat IPC: 0.620395 cumulative IPC: 0.57203 (Simulation time: 1 hr 5 min 22 sec) 
Heartbeat CPU 0 instructions: 540000004 cycles: 942206526 heartbeat IPC: 0.582083 cumulative IPC: 0.572213 (Simulation time: 1 hr 6 min 35 sec) 
Heartbeat CPU 0 instructions: 550000000 cycles: 959345274 heartbeat IPC: 0.583473 cumulative IPC: 0.572415 (Simulation time: 1 hr 7 min 47 sec) 
Heartbeat CPU 0 instructions: 560000000 cycles: 978205597 heartbeat IPC: 0.530214 cumulative IPC: 0.571601 (Simulation time: 1 hr 9 min 5 sec) 
Heartbeat CPU 0 instructions: 570000004 cycles: 994803542 heartbeat IPC: 0.602484 cumulative IPC: 0.572116 (Simulation time: 1 hr 10 min 16 sec) 
Heartbeat CPU 0 instructions: 580000000 cycles: 1007984616 heartbeat IPC: 0.758663 cumulative IPC: 0.574556 (Simulation time: 1 hr 11 min 20 sec) 
Heartbeat CPU 0 instructions: 590000000 cycles: 1023148257 heartbeat IPC: 0.659472 cumulative IPC: 0.575815 (Simulation time: 1 hr 12 min 26 sec) 
Heartbeat CPU 0 instructions: 600000001 cycles: 1040268314 heartbeat IPC: 0.58411 cumulative IPC: 0.575951 (Simulation time: 1 hr 13 min 39 sec) 
Heartbeat CPU 0 instructions: 610000003 cycles: 1057476801 heartbeat IPC: 0.581109 cumulative IPC: 0.576035 (Simulation time: 1 hr 14 min 51 sec) 
Heartbeat CPU 0 instructions: 620000000 cycles: 1074563622 heartbeat IPC: 0.585246 cumulative IPC: 0.576182 (Simulation time: 1 hr 16 min 0 sec) 
Heartbeat CPU 0 instructions: 630000004 cycles: 1091523887 heartbeat IPC: 0.589614 cumulative IPC: 0.576391 (Simulation time: 1 hr 17 min 9 sec) 
Heartbeat CPU 0 instructions: 640000003 cycles: 1108935322 heartbeat IPC: 0.574335 cumulative IPC: 0.576358 (Simulation time: 1 hr 18 min 18 sec) 
Heartbeat CPU 0 instructions: 650000002 cycles: 1125994245 heartbeat IPC: 0.586203 cumulative IPC: 0.576508 (Simulation time: 1 hr 19 min 26 sec) 
Heartbeat CPU 0 instructions: 660000003 cycles: 1143091134 heartbeat IPC: 0.584902 cumulative IPC: 0.576633 (Simulation time: 1 hr 20 min 35 sec) 
Heartbeat CPU 0 instructions: 670000003 cycles: 1159395413 heartbeat IPC: 0.613336 cumulative IPC: 0.577149 (Simulation time: 1 hr 21 min 43 sec) 
Heartbeat CPU 0 instructions: 680000000 cycles: 1176622734 heartbeat IPC: 0.580473 cumulative IPC: 0.577198 (Simulation time: 1 hr 22 min 53 sec) 
Heartbeat CPU 0 instructions: 690000002 cycles: 1193709168 heartbeat IPC: 0.58526 cumulative IPC: 0.577313 (Simulation time: 1 hr 24 min 4 sec) 
Heartbeat CPU 0 instructions: 700000001 cycles: 1211027161 heartbeat IPC: 0.577434 cumulative IPC: 0.577315 (Simulation time: 1 hr 25 min 13 sec) 
Heartbeat CPU 0 instructions: 710000001 cycles: 1228079872 heartbeat IPC: 0.586417 cumulative IPC: 0.577442 (Simulation time: 1 hr 26 min 21 sec) 
Heartbeat CPU 0 instructions: 720000000 cycles: 1245474069 heartbeat IPC: 0.574904 cumulative IPC: 0.577406 (Simulation time: 1 hr 27 min 29 sec) 
Heartbeat CPU 0 instructions: 730000004 cycles: 1261504310 heartbeat IPC: 0.623821 cumulative IPC: 0.577996 (Simulation time: 1 hr 28 min 35 sec) 
Heartbeat CPU 0 instructions: 740000004 cycles: 1274016335 heartbeat IPC: 0.799231 cumulative IPC: 0.580169 (Simulation time: 1 hr 29 min 33 sec) 
Heartbeat CPU 0 instructions: 750000001 cycles: 1286851226 heartbeat IPC: 0.779126 cumulative IPC: 0.582154 (Simulation time: 1 hr 30 min 32 sec) 
Heartbeat CPU 0 instructions: 760000002 cycles: 1317380187 heartbeat IPC: 0.327558 cumulative IPC: 0.576253 (Simulation time: 1 hr 32 min 7 sec) 
Heartbeat CPU 0 instructions: 770000000 cycles: 1339085277 heartbeat IPC: 0.460721 cumulative IPC: 0.57438 (Simulation time: 1 hr 33 min 26 sec) 
Heartbeat CPU 0 instructions: 780000000 cycles: 1356226718 heartbeat IPC: 0.583382 cumulative IPC: 0.574494 (Simulation time: 1 hr 34 min 32 sec) 
Heartbeat CPU 0 instructions: 790000004 cycles: 1373495144 heartbeat IPC: 0.579092 cumulative IPC: 0.574551 (Simulation time: 1 hr 35 min 38 sec) 
Heartbeat CPU 0 instructions: 800000001 cycles: 1390847510 heartbeat IPC: 0.57629 cumulative IPC: 0.574573 (Simulation time: 1 hr 36 min 44 sec) 
Heartbeat CPU 0 instructions: 810000000 cycles: 1407901413 heartbeat IPC: 0.586376 cumulative IPC: 0.574716 (Simulation time: 1 hr 37 min 47 sec) 
Heartbeat CPU 0 instructions: 820000000 cycles: 1423771702 heartbeat IPC: 0.630108 cumulative IPC: 0.575334 (Simulation time: 1 hr 38 min 47 sec) 
Heartbeat CPU 0 instructions: 830000002 cycles: 1439777266 heartbeat IPC: 0.624783 cumulative IPC: 0.575884 (Simulation time: 1 hr 39 min 47 sec) 
Heartbeat CPU 0 instructions: 840000002 cycles: 1452551633 heartbeat IPC: 0.782818 cumulative IPC: 0.577704 (Simulation time: 1 hr 40 min 40 sec) 
Heartbeat CPU 0 instructions: 850000004 cycles: 1466105171 heartbeat IPC: 0.737815 cumulative IPC: 0.579184 (Simulation time: 1 hr 41 min 35 sec) 
Heartbeat CPU 0 instructions: 860000004 cycles: 1483568205 heartbeat IPC: 0.572638 cumulative IPC: 0.579107 (Simulation time: 1 hr 42 min 40 sec) 
Heartbeat CPU 0 instructions: 870000000 cycles: 1500617600 heartbeat IPC: 0.586531 cumulative IPC: 0.579191 (Simulation time: 1 hr 43 min 43 sec) 
Heartbeat CPU 0 instructions: 880000003 cycles: 1517840159 heartbeat IPC: 0.580634 cumulative IPC: 0.579208 (Simulation time: 1 hr 44 min 42 sec) 
Heartbeat CPU 0 instructions: 890000003 cycles: 1534881783 heartbeat IPC: 0.586799 cumulative IPC: 0.579292 (Simulation time: 1 hr 45 min 44 sec) 
Heartbeat CPU 0 instructions: 900000000 cycles: 1552133435 heartbeat IPC: 0.579654 cumulative IPC: 0.579296 (Simulation time: 1 hr 46 min 47 sec) 
Heartbeat CPU 0 instructions: 910000000 cycles: 1568317602 heartbeat IPC: 0.617888 cumulative IPC: 0.579694 (Simulation time: 1 hr 47 min 47 sec) 
Heartbeat CPU 0 instructions: 920000003 cycles: 1585551002 heartbeat IPC: 0.580269 cumulative IPC: 0.579701 (Simulation time: 1 hr 48 min 51 sec) 
Heartbeat CPU 0 instructions: 930000000 cycles: 1602936480 heartbeat IPC: 0.575193 cumulative IPC: 0.579652 (Simulation time: 1 hr 49 min 56 sec) 
Heartbeat CPU 0 instructions: 940000003 cycles: 1619183585 heartbeat IPC: 0.615494 cumulative IPC: 0.580011 (Simulation time: 1 hr 50 min 59 sec) 
Heartbeat CPU 0 instructions: 950000001 cycles: 1636339134 heartbeat IPC: 0.582902 cumulative IPC: 0.580042 (Simulation time: 1 hr 52 min 2 sec) 
Heartbeat CPU 0 instructions: 960000003 cycles: 1653643535 heartbeat IPC: 0.577888 cumulative IPC: 0.580019 (Simulation time: 1 hr 53 min 7 sec) 
Heartbeat CPU 0 instructions: 970000002 cycles: 1669085882 heartbeat IPC: 0.64757 cumulative IPC: 0.580644 (Simulation time: 1 hr 54 min 7 sec) 
Heartbeat CPU 0 instructions: 980000000 cycles: 1686297969 heartbeat IPC: 0.580987 cumulative IPC: 0.580648 (Simulation time: 1 hr 55 min 11 sec) 
Heartbeat CPU 0 instructions: 990000000 cycles: 1703709492 heartbeat IPC: 0.574332 cumulative IPC: 0.580583 (Simulation time: 1 hr 56 min 15 sec) 
Heartbeat CPU 0 instructions: 1000000001 cycles: 1720871951 heartbeat IPC: 0.582667 cumulative IPC: 0.580604 (Simulation time: 1 hr 57 min 19 sec) 
Finished CPU 0 instructions: 1000000004 cycles: 1722362728 cumulative IPC: 0.580598 (Simulation time: 1 hr 57 min 25 sec) 

ChampSim completed all CPUs

Region of Interest Statistics

CPU 0 cumulative IPC: 0.580598 instructions: 1000000004 cycles: 1722362728
cpu0_DTLB TOTAL     ACCESS:  183214437  HIT:  182619858  MISS:     594579
cpu0_DTLB LOAD      ACCESS:  145508118  HIT:  144915396  MISS:     592722
cpu0_DTLB RFO       ACCESS:   37706319  HIT:   37704462  MISS:       1857
cpu0_DTLB PREFETCH  ACCESS:          0  HIT:          0  MISS:          0
cpu0_DTLB WRITEBACK ACCESS:          0  HIT:          0  MISS:          0
cpu0_DTLB TRANSLATION ACCESS:          0  HIT:          0  MISS:          0
cpu0_DTLB PREFETCH  REQUESTED:          0  ISSUED:          0  USEFUL:          0  USELESS:          0
cpu0_DTLB AVERAGE MISS LATENCY: 19.7971 cycles
cpu0_ITLB TOTAL     ACCESS:  111754749  HIT:  111754737  MISS:         12
cpu0_ITLB LOAD      ACCESS:  111754749  HIT:  111754737  MISS:         12
cpu0_ITLB RFO       ACCESS:          0  HIT:          0  MISS:          0
cpu0_ITLB PREFETCH  ACCESS:          0  HIT:          0  MISS:          0
cpu0_ITLB WRITEBACK ACCESS:          0  HIT:          0  MISS:          0
cpu0_ITLB TRANSLATION ACCESS:          0  HIT:          0  MISS:          0
cpu0_ITLB PREFETCH  REQUESTED:          0  ISSUED:          0  USEFUL:          0  USELESS:          0
cpu0_ITLB AVERAGE MISS LATENCY: 305.583 cycles
cpu0_L1I TOTAL     ACCESS:     315168  HIT:     315023  MISS:        145
cpu0_L1I LOAD      ACCESS:     315168  HIT:     315023  MISS:        145
cpu0_L1I RFO       ACCESS:          0  HIT:          0  MISS:          0
cpu0_L1I PREFETCH  ACCESS:          0  HIT:          0  MISS:          0
cpu0_L1I WRITEBACK ACCESS:          0  HIT:          0  MISS:          0
cpu0_L1I TRANSLATION ACCESS:          0  HIT:          0  MISS:          0
cpu0_L1I PREFETCH  REQUESTED:          0  ISSUED:          0  USEFUL:          0  USELESS:          0
cpu0_L1I AVERAGE MISS LATENCY: 340.352 cycles
cpu0_STLB TOTAL     ACCESS:     594591  HIT:     365564  MISS:     229027
cpu0_STLB LOAD      ACCESS:     592734  HIT:     364493  MISS:     228241
cpu0_STLB RFO       ACCESS:       1857  HIT:       1071  MISS:        786
cpu0_STLB PREFETCH  ACCESS:          0  HIT:          0  MISS:          0
cpu0_STLB WRITEBACK ACCESS:          0  HIT:          0  MISS:          0
cpu0_STLB TRANSLATION ACCESS:          0  HIT:          0  MISS:          0
cpu0_STLB PREFETCH  REQUESTED:          0  ISSUED:          0  USEFUL:          0  USELESS:          0
cpu0_STLB AVERAGE MISS LATENCY: 28.0417 cycles
cpu0_L1D TOTAL     ACCESS:  326076355  HIT:  307943424  MISS:   18132931
cpu0_L1D LOAD      ACCESS:  129185009  HIT:  122170552  MISS:    7014457
cpu0_L1D RFO       ACCESS:   99635868  HIT:   99624573  MISS:      11295
cpu0_L1D PREFETCH  ACCESS:   97030355  HIT:   85965678  MISS:   11064677
cpu0_L1D WRITEBACK ACCESS:          0  HIT:          0  MISS:          0
cpu0_L1D TRANSLATION ACCESS:     225123  HIT:     182621  MISS:      42502
cpu0_L1D PREFETCH  REQUESTED:  131834208  ISSUED:  131799890  USEFUL:   16217703  USELESS:     477552
cpu0_L1D AVERAGE MISS LATENCY: 55.7695 cycles
cpu0_L2C TOTAL     ACCESS:   19241410  HIT:   10268975  MISS:    8972435
cpu0_L2C LOAD      ACCESS:    1388226  HIT:     980593  MISS:     407633
cpu0_L2C RFO       ACCESS:       7087  HIT:       2975  MISS:       4112
cpu0_L2C PREFETCH  ACCESS:   17639823  HIT:    9090786  MISS:    8549037
cpu0_L2C WRITEBACK ACCESS:     163772  HIT:     163507  MISS:        265
cpu0_L2C TRANSLATION ACCESS:      42502  HIT:      31114  MISS:      11388
cpu0_L2C PREFETCH  REQUESTED:    1137775  ISSUED:     983310  USEFUL:      44577  USELESS:      30236
cpu0_L2C AVERAGE MISS LATENCY: 281.605 cycles
LLC TOTAL     ACCESS:    9060926  HIT:     185199  MISS:    8875727
LLC LOAD      ACCESS:     407627  HIT:      33580  MISS:     374047
LLC RFO       ACCESS:       4112  HIT:        234  MISS:       3878
LLC PREFETCH  ACCESS:    8549073  HIT:      72729  MISS:    8476344
LLC WRITEBACK ACCESS:      88726  HIT:      72307  MISS:      16419
LLC TRANSLATION ACCESS:      11388  HIT:       6349  MISS:       5039
LLC PREFETCH  REQUESTED:          0  ISSUED:          0  USEFUL:          0  USELESS:          0
LLC AVERAGE MISS LATENCY: 257.382 cycles

DRAM Statistics
 CHANNEL 0
 RQ ROW_BUFFER_HIT:    2421106  ROW_BUFFER_MISS:    6438014
 DBUS AVG_CONGESTED_CYCLE:    3.69952
 WQ ROW_BUFFER_HIT:      15143  ROW_BUFFER_MISS:      69471  FULL:          0


CPU 0 Branch Prediction Accuracy: 94.7236% MPKI: 12.5632 Average ROB Occupancy at Mispredict: 55.9495
Branch type MPKI
BRANCH_DIRECT_JUMP: 7.4e-05
BRANCH_INDIRECT: 0
BRANCH_CONDITIONAL: 12.5631
BRANCH_DIRECT_CALL: 3.9e-05
BRANCH_INDIRECT_CALL: 8e-06
BRANCH_RETURN: 3.8e-05

