
*** ChampSim Multicore Out-of-Order Simulator ***

Warmup Instructions: 1000000
Simulation Instructions: 1000000000
Number of CPUs: 1
Off-chip DRAM Size: 4 GiB Channels: 1 Width: 64-bit Data Rate: 3200 MT/s

VirtualMemory physical capacity: 8588881920 num_ppages: 2096895
VirtualMemory page size: 4096 log2_page_size: 12

CPU 0 runs tracer/pin/traces/spec2k17/648.exchange2_s-1699B.champsimtrace.xz
Basic BTB sets: 1024 ways: 8 indirect buffer size: 4096 RAS size: 64
cpu0_L1D next line prefetcher
cpu0_L2C IP-based stride prefetcher
WARNING: The extended signature CACHE::prefetch_line(ip, base_addr, pf_addr, fill_this_level, prefetch_metadata) is deprecated.
WARNING: Use CACHE::prefetch_line(pf_addr, fill_this_level, prefetch_metadata) instead.

Warmup complete CPU 0 instructions: 1000002 cycles: 250181 (Simulation time: 0 hr 0 min 3 sec) 

Heartbeat CPU 0 instructions: 10000000 cycles: 5844955 heartbeat IPC: 1.71088 cumulative IPC: 1.60864 (Simulation time: 0 hr 0 min 33 sec) 
Heartbeat CPU 0 instructions: 20000001 cycles: 12000528 heartbeat IPC: 1.62454 cumulative IPC: 1.61697 (Simulation time: 0 hr 1 min 6 sec) 
Heartbeat CPU 0 instructions: 30000003 cycles: 18217061 heartbeat IPC: 1.60861 cumulative IPC: 1.61408 (Simulation time: 0 hr 1 min 38 sec) 
Heartbeat CPU 0 instructions: 40000004 cycles: 24702171 heartbeat IPC: 1.54199 cumulative IPC: 1.59496 (Simulation time: 0 hr 2 min 12 sec) 
Heartbeat CPU 0 instructions: 50000000 cycles: 31054717 heartbeat IPC: 1.57417 cumulative IPC: 1.59067 (Simulation time: 0 hr 2 min 45 sec) 
Heartbeat CPU 0 instructions: 60000002 cycles: 37414913 heartbeat IPC: 1.57228 cumulative IPC: 1.58753 (Simulation time: 0 hr 3 min 19 sec) 
Heartbeat CPU 0 instructions: 70000003 cycles: 43727705 heartbeat IPC: 1.58409 cumulative IPC: 1.58703 (Simulation time: 0 hr 3 min 51 sec) 
Heartbeat CPU 0 instructions: 80000004 cycles: 50155885 heartbeat IPC: 1.55565 cumulative IPC: 1.58299 (Simulation time: 0 hr 4 min 24 sec) 
Heartbeat CPU 0 instructions: 90000003 cycles: 56493104 heartbeat IPC: 1.57798 cumulative IPC: 1.58242 (Simulation time: 0 hr 4 min 57 sec) 
Heartbeat CPU 0 instructions: 100000003 cycles: 62837260 heartbeat IPC: 1.57625 cumulative IPC: 1.5818 (Simulation time: 0 hr 5 min 30 sec) 
Heartbeat CPU 0 instructions: 110000000 cycles: 69258009 heartbeat IPC: 1.55745 cumulative IPC: 1.57953 (Simulation time: 0 hr 6 min 4 sec) 
Heartbeat CPU 0 instructions: 120000001 cycles: 75581405 heartbeat IPC: 1.58143 cumulative IPC: 1.57969 (Simulation time: 0 hr 6 min 37 sec) 
Heartbeat CPU 0 instructions: 130000002 cycles: 81916253 heartbeat IPC: 1.57857 cumulative IPC: 1.5796 (Simulation time: 0 hr 7 min 12 sec) 
Heartbeat CPU 0 instructions: 140000000 cycles: 88119293 heartbeat IPC: 1.61211 cumulative IPC: 1.5819 (Simulation time: 0 hr 7 min 47 sec) 
Heartbeat CPU 0 instructions: 150000004 cycles: 94322937 heartbeat IPC: 1.61196 cumulative IPC: 1.58388 (Simulation time: 0 hr 8 min 21 sec) 
Heartbeat CPU 0 instructions: 160000004 cycles: 100505213 heartbeat IPC: 1.61753 cumulative IPC: 1.58596 (Simulation time: 0 hr 8 min 56 sec) 
Heartbeat CPU 0 instructions: 170000000 cycles: 106760212 heartbeat IPC: 1.59872 cumulative IPC: 1.5867 (Simulation time: 0 hr 9 min 31 sec) 
Heartbeat CPU 0 instructions: 180000000 cycles: 112993148 heartbeat IPC: 1.60438 cumulative IPC: 1.58768 (Simulation time: 0 hr 10 min 6 sec) 
Heartbeat CPU 0 instructions: 190000001 cycles: 119241699 heartbeat IPC: 1.60037 cumulative IPC: 1.58835 (Simulation time: 0 hr 10 min 41 sec) 
Heartbeat CPU 0 instructions: 200000002 cycles: 125475340 heartbeat IPC: 1.6042 cumulative IPC: 1.58914 (Simulation time: 0 hr 11 min 16 sec) 
Heartbeat CPU 0 instructions: 210000000 cycles: 131722782 heartbeat IPC: 1.60065 cumulative IPC: 1.58968 (Simulation time: 0 hr 11 min 52 sec) 
Heartbeat CPU 0 instructions: 220000001 cycles: 137908693 heartbeat IPC: 1.61658 cumulative IPC: 1.59089 (Simulation time: 0 hr 12 min 26 sec) 
Heartbeat CPU 0 instructions: 230000002 cycles: 144135352 heartbeat IPC: 1.606 cumulative IPC: 1.59155 (Simulation time: 0 hr 13 min 2 sec) 
Heartbeat CPU 0 instructions: 240000003 cycles: 150418045 heartbeat IPC: 1.59167 cumulative IPC: 1.59155 (Simulation time: 0 hr 13 min 38 sec) 
Heartbeat CPU 0 instructions: 250000003 cycles: 156630237 heartbeat IPC: 1.60974 cumulative IPC: 1.59227 (Simulation time: 0 hr 14 min 14 sec) 
Heartbeat CPU 0 instructions: 260000000 cycles: 162841302 heartbeat IPC: 1.61003 cumulative IPC: 1.59295 (Simulation time: 0 hr 14 min 49 sec) 
Heartbeat CPU 0 instructions: 270000001 cycles: 169100094 heartbeat IPC: 1.59775 cumulative IPC: 1.59313 (Simulation time: 0 hr 15 min 25 sec) 
Heartbeat CPU 0 instructions: 280000000 cycles: 175352246 heartbeat IPC: 1.59945 cumulative IPC: 1.59336 (Simulation time: 0 hr 16 min 0 sec) 
Heartbeat CPU 0 instructions: 290000001 cycles: 181612031 heartbeat IPC: 1.5975 cumulative IPC: 1.5935 (Simulation time: 0 hr 16 min 36 sec) 
Heartbeat CPU 0 instructions: 300000001 cycles: 187820505 heartbeat IPC: 1.6107 cumulative IPC: 1.59407 (Simulation time: 0 hr 17 min 12 sec) 
Heartbeat CPU 0 instructions: 310000001 cycles: 194069220 heartbeat IPC: 1.60033 cumulative IPC: 1.59427 (Simulation time: 0 hr 17 min 46 sec) 
Heartbeat CPU 0 instructions: 320000003 cycles: 200226483 heartbeat IPC: 1.6241 cumulative IPC: 1.59519 (Simulation time: 0 hr 18 min 21 sec) 
Heartbeat CPU 0 instructions: 330000003 cycles: 206475433 heartbeat IPC: 1.60027 cumulative IPC: 1.59534 (Simulation time: 0 hr 18 min 55 sec) 
Heartbeat CPU 0 instructions: 340000002 cycles: 212695298 heartbeat IPC: 1.60775 cumulative IPC: 1.59571 (Simulation time: 0 hr 19 min 29 sec) 
Heartbeat CPU 0 instructions: 350000000 cycles: 218856068 heartbeat IPC: 1.62317 cumulative IPC: 1.59648 (Simulation time: 0 hr 20 min 3 sec) 
Heartbeat CPU 0 instructions: 360000002 cycles: 225083224 heartbeat IPC: 1.60587 cumulative IPC: 1.59674 (Simulation time: 0 hr 20 min 38 sec) 
Heartbeat CPU 0 instructions: 370000001 cycles: 231267605 heartbeat IPC: 1.61698 cumulative IPC: 1.59728 (Simulation time: 0 hr 21 min 13 sec) 
Heartbeat CPU 0 instructions: 380000000 cycles: 237639343 heartbeat IPC: 1.56943 cumulative IPC: 1.59653 (Simulation time: 0 hr 21 min 48 sec) 
Heartbeat CPU 0 instructions: 390000000 cycles: 243798434 heartbeat IPC: 1.62362 cumulative IPC: 1.59722 (Simulation time: 0 hr 22 min 23 sec) 
Heartbeat CPU 0 instructions: 400000001 cycles: 249984659 heartbeat IPC: 1.61649 cumulative IPC: 1.5977 (Simulation time: 0 hr 22 min 56 sec) 
Heartbeat CPU 0 instructions: 410000003 cycles: 256107593 heartbeat IPC: 1.6332 cumulative IPC: 1.59855 (Simulation time: 0 hr 23 min 30 sec) 
Heartbeat CPU 0 instructions: 420000000 cycles: 262267213 heartbeat IPC: 1.62348 cumulative IPC: 1.59913 (Simulation time: 0 hr 24 min 4 sec) 
Heartbeat CPU 0 instructions: 430000000 cycles: 268428547 heartbeat IPC: 1.62303 cumulative IPC: 1.59968 (Simulation time: 0 hr 24 min 38 sec) 
Heartbeat CPU 0 instructions: 440000000 cycles: 274610421 heartbeat IPC: 1.61763 cumulative IPC: 1.60009 (Simulation time: 0 hr 25 min 10 sec) 
Heartbeat CPU 0 instructions: 450000002 cycles: 280722862 heartbeat IPC: 1.63601 cumulative IPC: 1.60087 (Simulation time: 0 hr 25 min 44 sec) 
Heartbeat CPU 0 instructions: 460000000 cycles: 286953032 heartbeat IPC: 1.60509 cumulative IPC: 1.60096 (Simulation time: 0 hr 26 min 17 sec) 
Heartbeat CPU 0 instructions: 470000000 cycles: 293177794 heartbeat IPC: 1.60649 cumulative IPC: 1.60108 (Simulation time: 0 hr 26 min 50 sec) 
Heartbeat CPU 0 instructions: 480000003 cycles: 299457465 heartbeat IPC: 1.59244 cumulative IPC: 1.6009 (Simulation time: 0 hr 27 min 24 sec) 
Heartbeat CPU 0 instructions: 490000002 cycles: 305648797 heartbeat IPC: 1.61516 cumulative IPC: 1.60119 (Simulation time: 0 hr 27 min 58 sec) 
Heartbeat CPU 0 instructions: 500000000 cycles: 311808969 heartbeat IPC: 1.62333 cumulative IPC: 1.60162 (Simulation time: 0 hr 28 min 32 sec) 
Heartbeat CPU 0 instructions: 510000000 cycles: 317907958 heartbeat IPC: 1.63962 cumulative IPC: 1.60235 (Simulation time: 0 hr 29 min 5 sec) 
Heartbeat CPU 0 instructions: 520000000 cycles: 324119768 heartbeat IPC: 1.60984 cumulative IPC: 1.6025 (Simulation time: 0 hr 29 min 37 sec) 
Heartbeat CPU 0 instructions: 530000002 cycles: 330336356 heartbeat IPC: 1.6086 cumulative IPC: 1.60261 (Simulation time: 0 hr 30 min 9 sec) 
Heartbeat CPU 0 instructions: 540000000 cycles: 336423927 heartbeat IPC: 1.64269 cumulative IPC: 1.60334 (Simulation time: 0 hr 30 min 42 sec) 
Heartbeat CPU 0 instructions: 550000004 cycles: 342651143 heartbeat IPC: 1.60585 cumulative IPC: 1.60338 (Simulation time: 0 hr 31 min 14 sec) 
Heartbeat CPU 0 instructions: 560000004 cycles: 348873659 heartbeat IPC: 1.60707 cumulative IPC: 1.60345 (Simulation time: 0 hr 31 min 45 sec) 
Heartbeat CPU 0 instructions: 570000001 cycles: 355096791 heartbeat IPC: 1.60691 cumulative IPC: 1.60351 (Simulation time: 0 hr 32 min 17 sec) 
Heartbeat CPU 0 instructions: 580000000 cycles: 361422086 heartbeat IPC: 1.58095 cumulative IPC: 1.60311 (Simulation time: 0 hr 32 min 48 sec) 
Heartbeat CPU 0 instructions: 590000000 cycles: 367627240 heartbeat IPC: 1.61156 cumulative IPC: 1.60326 (Simulation time: 0 hr 33 min 20 sec) 
Heartbeat CPU 0 instructions: 600000004 cycles: 373801190 heartbeat IPC: 1.61971 cumulative IPC: 1.60353 (Simulation time: 0 hr 33 min 51 sec) 
Heartbeat CPU 0 instructions: 610000003 cycles: 379994177 heartbeat IPC: 1.61473 cumulative IPC: 1.60371 (Simulation time: 0 hr 34 min 23 sec) 
Heartbeat CPU 0 instructions: 620000002 cycles: 386175574 heartbeat IPC: 1.61776 cumulative IPC: 1.60394 (Simulation time: 0 hr 34 min 55 sec) 
Heartbeat CPU 0 instructions: 630000002 cycles: 392363796 heartbeat IPC: 1.61597 cumulative IPC: 1.60413 (Simulation time: 0 hr 35 min 26 sec) 
Heartbeat CPU 0 instructions: 640000000 cycles: 398605295 heartbeat IPC: 1.60218 cumulative IPC: 1.6041 (Simulation time: 0 hr 35 min 58 sec) 
Heartbeat CPU 0 instructions: 650000001 cycles: 404821723 heartbeat IPC: 1.60864 cumulative IPC: 1.60417 (Simulation time: 0 hr 36 min 30 sec) 
Heartbeat CPU 0 instructions: 660000000 cycles: 411023140 heartbeat IPC: 1.61253 cumulative IPC: 1.60429 (Simulation time: 0 hr 37 min 2 sec) 
Heartbeat CPU 0 instructions: 670000003 cycles: 417262886 heartbeat IPC: 1.60263 cumulative IPC: 1.60427 (Simulation time: 0 hr 37 min 34 sec) 
Heartbeat CPU 0 instructions: 680000001 cycles: 423486095 heartbeat IPC: 1.60689 cumulative IPC: 1.60431 (Simulation time: 0 hr 38 min 7 sec) 
Heartbeat CPU 0 instructions: 690000001 cycles: 429668964 heartbeat IPC: 1.61737 cumulative IPC: 1.60449 (Simulation time: 0 hr 38 min 39 sec) 
Heartbeat CPU 0 instructions: 700000003 cycles: 435863854 heartbeat IPC: 1.61423 cumulative IPC: 1.60463 (Simulation time: 0 hr 39 min 10 sec) 
Heartbeat CPU 0 instructions: 710000000 cycles: 442063747 heartbeat IPC: 1.61293 cumulative IPC: 1.60475 (Simulation time: 0 hr 39 min 41 sec) 
Heartbeat CPU 0 instructions: 720000001 cycles: 448252239 heartbeat IPC: 1.6159 cumulative IPC: 1.6049 (Simulation time: 0 hr 40 min 12 sec) 
Heartbeat CPU 0 instructions: 730000000 cycles: 454365368 heartbeat IPC: 1.63582 cumulative IPC: 1.60532 (Simulation time: 0 hr 40 min 42 sec) 
Heartbeat CPU 0 instructions: 740000001 cycles: 460495183 heartbeat IPC: 1.63137 cumulative IPC: 1.60567 (Simulation time: 0 hr 41 min 13 sec) 
Heartbeat CPU 0 instructions: 750000000 cycles: 466621525 heartbeat IPC: 1.6323 cumulative IPC: 1.60602 (Simulation time: 0 hr 41 min 44 sec) 
Heartbeat CPU 0 instructions: 760000001 cycles: 472756656 heartbeat IPC: 1.62996 cumulative IPC: 1.60633 (Simulation time: 0 hr 42 min 15 sec) 
Heartbeat CPU 0 instructions: 770000000 cycles: 478864852 heartbeat IPC: 1.63714 cumulative IPC: 1.60672 (Simulation time: 0 hr 42 min 46 sec) 
Heartbeat CPU 0 instructions: 780000002 cycles: 485065982 heartbeat IPC: 1.61261 cumulative IPC: 1.6068 (Simulation time: 0 hr 43 min 17 sec) 
Heartbeat CPU 0 instructions: 790000001 cycles: 491261771 heartbeat IPC: 1.614 cumulative IPC: 1.60689 (Simulation time: 0 hr 43 min 50 sec) 
Heartbeat CPU 0 instructions: 800000003 cycles: 497461684 heartbeat IPC: 1.61293 cumulative IPC: 1.60696 (Simulation time: 0 hr 44 min 20 sec) 
Heartbeat CPU 0 instructions: 810000001 cycles: 503656032 heartbeat IPC: 1.61437 cumulative IPC: 1.60705 (Simulation time: 0 hr 44 min 52 sec) 
Heartbeat CPU 0 instructions: 820000000 cycles: 509855434 heartbeat IPC: 1.61306 cumulative IPC: 1.60713 (Simulation time: 0 hr 45 min 24 sec) 
Heartbeat CPU 0 instructions: 830000003 cycles: 516032382 heartbeat IPC: 1.61892 cumulative IPC: 1.60727 (Simulation time: 0 hr 45 min 57 sec) 
Heartbeat CPU 0 instructions: 840000002 cycles: 522231793 heartbeat IPC: 1.61306 cumulative IPC: 1.60734 (Simulation time: 0 hr 46 min 30 sec) 
Heartbeat CPU 0 instructions: 850000003 cycles: 528423685 heartbeat IPC: 1.61502 cumulative IPC: 1.60743 (Simulation time: 0 hr 47 min 3 sec) 
Heartbeat CPU 0 instructions: 860000003 cycles: 534551178 heartbeat IPC: 1.63199 cumulative IPC: 1.60771 (Simulation time: 0 hr 47 min 35 sec) 
Heartbeat CPU 0 instructions: 870000004 cycles: 540745918 heartbeat IPC: 1.61427 cumulative IPC: 1.60778 (Simulation time: 0 hr 48 min 8 sec) 
Heartbeat CPU 0 instructions: 880000000 cycles: 546859578 heartbeat IPC: 1.63568 cumulative IPC: 1.6081 (Simulation time: 0 hr 48 min 40 sec) 
Heartbeat CPU 0 instructions: 890000004 cycles: 553021533 heartbeat IPC: 1.62286 cumulative IPC: 1.60826 (Simulation time: 0 hr 49 min 13 sec) 
Heartbeat CPU 0 instructions: 900000002 cycles: 559161648 heartbeat IPC: 1.62863 cumulative IPC: 1.60848 (Simulation time: 0 hr 49 min 43 sec) 
Heartbeat CPU 0 instructions: 910000003 cycles: 565404633 heartbeat IPC: 1.6018 cumulative IPC: 1.60841 (Simulation time: 0 hr 50 min 14 sec) 
Heartbeat CPU 0 instructions: 920000001 cycles: 571620508 heartbeat IPC: 1.60878 cumulative IPC: 1.60841 (Simulation time: 0 hr 50 min 46 sec) 
Heartbeat CPU 0 instructions: 930000000 cycles: 577751493 heartbeat IPC: 1.63106 cumulative IPC: 1.60865 (Simulation time: 0 hr 51 min 19 sec) 
Heartbeat CPU 0 instructions: 940000001 cycles: 583990732 heartbeat IPC: 1.60276 cumulative IPC: 1.60859 (Simulation time: 0 hr 51 min 50 sec) 
Heartbeat CPU 0 instructions: 950000004 cycles: 590209698 heartbeat IPC: 1.60798 cumulative IPC: 1.60859 (Simulation time: 0 hr 52 min 22 sec) 
Heartbeat CPU 0 instructions: 960000001 cycles: 596426983 heartbeat IPC: 1.60842 cumulative IPC: 1.60858 (Simulation time: 0 hr 52 min 54 sec) 
Heartbeat CPU 0 instructions: 970000002 cycles: 602612475 heartbeat IPC: 1.61669 cumulative IPC: 1.60867 (Simulation time: 0 hr 53 min 27 sec) 
Heartbeat CPU 0 instructions: 980000001 cycles: 608729207 heartbeat IPC: 1.63486 cumulative IPC: 1.60893 (Simulation time: 0 hr 53 min 58 sec) 
Heartbeat CPU 0 instructions: 990000003 cycles: 614836412 heartbeat IPC: 1.63741 cumulative IPC: 1.60921 (Simulation time: 0 hr 54 min 31 sec) 
Heartbeat CPU 0 instructions: 1000000002 cycles: 620952308 heartbeat IPC: 1.63508 cumulative IPC: 1.60947 (Simulation time: 0 hr 55 min 2 sec) 
Finished CPU 0 instructions: 1000000000 cycles: 621319664 cumulative IPC: 1.60948 (Simulation time: 0 hr 55 min 5 sec) 

ChampSim completed all CPUs

Region of Interest Statistics

CPU 0 cumulative IPC: 1.60948 instructions: 1000000000 cycles: 621319664
cpu0_DTLB TOTAL     ACCESS:  151951315  HIT:  151951303  MISS:         12
cpu0_DTLB LOAD      ACCESS:   69046701  HIT:   69046691  MISS:         10
cpu0_DTLB RFO       ACCESS:   82904614  HIT:   82904612  MISS:          2
cpu0_DTLB PREFETCH  ACCESS:          0  HIT:          0  MISS:          0
cpu0_DTLB WRITEBACK ACCESS:          0  HIT:          0  MISS:          0
cpu0_DTLB TRANSLATION ACCESS:          0  HIT:          0  MISS:          0
cpu0_DTLB PREFETCH  REQUESTED:          0  ISSUED:          0  USEFUL:          0  USELESS:          0
cpu0_DTLB AVERAGE MISS LATENCY: 244.333 cycles
cpu0_ITLB TOTAL     ACCESS:   96611161  HIT:   96611137  MISS:         24
cpu0_ITLB LOAD      ACCESS:   96611161  HIT:   96611137  MISS:         24
cpu0_ITLB RFO       ACCESS:          0  HIT:          0  MISS:          0
cpu0_ITLB PREFETCH  ACCESS:          0  HIT:          0  MISS:          0
cpu0_ITLB WRITEBACK ACCESS:          0  HIT:          0  MISS:          0
cpu0_ITLB TRANSLATION ACCESS:          0  HIT:          0  MISS:          0
cpu0_ITLB PREFETCH  REQUESTED:          0  ISSUED:          0  USEFUL:          0  USELESS:          0
cpu0_ITLB AVERAGE MISS LATENCY: 216 cycles
cpu0_L1I TOTAL     ACCESS:   42362080  HIT:   42356145  MISS:       5935
cpu0_L1I LOAD      ACCESS:   42362080  HIT:   42356145  MISS:       5935
cpu0_L1I RFO       ACCESS:          0  HIT:          0  MISS:          0
cpu0_L1I PREFETCH  ACCESS:          0  HIT:          0  MISS:          0
cpu0_L1I WRITEBACK ACCESS:          0  HIT:          0  MISS:          0
cpu0_L1I TRANSLATION ACCESS:          0  HIT:          0  MISS:          0
cpu0_L1I PREFETCH  REQUESTED:          0  ISSUED:          0  USEFUL:          0  USELESS:          0
cpu0_L1I AVERAGE MISS LATENCY: 51.3104 cycles
cpu0_STLB TOTAL     ACCESS:         36  HIT:          0  MISS:         36
cpu0_STLB LOAD      ACCESS:         34  HIT:          0  MISS:         34
cpu0_STLB RFO       ACCESS:          2  HIT:          0  MISS:          2
cpu0_STLB PREFETCH  ACCESS:          0  HIT:          0  MISS:          0
cpu0_STLB WRITEBACK ACCESS:          0  HIT:          0  MISS:          0
cpu0_STLB TRANSLATION ACCESS:          0  HIT:          0  MISS:          0
cpu0_STLB PREFETCH  REQUESTED:          0  ISSUED:          0  USEFUL:          0  USELESS:          0
cpu0_STLB AVERAGE MISS LATENCY: 216.444 cycles
cpu0_L1D TOTAL     ACCESS:  443926011  HIT:  443925819  MISS:        192
cpu0_L1D LOAD      ACCESS:  136844864  HIT:  136844818  MISS:         46
cpu0_L1D RFO       ACCESS:  171754549  HIT:  171754443  MISS:        106
cpu0_L1D PREFETCH  ACCESS:  135326562  HIT:  135326523  MISS:         39
cpu0_L1D WRITEBACK ACCESS:          0  HIT:          0  MISS:          0
cpu0_L1D TRANSLATION ACCESS:         36  HIT:         35  MISS:          1
cpu0_L1D PREFETCH  REQUESTED:  136844911  ISSUED:  135326629  USEFUL:         45  USELESS:          0
cpu0_L1D AVERAGE MISS LATENCY: 333.922 cycles
cpu0_L2C TOTAL     ACCESS:       6131  HIT:       4941  MISS:       1190
cpu0_L2C LOAD      ACCESS:       5976  HIT:       4936  MISS:       1040
cpu0_L2C RFO       ACCESS:        105  HIT:          1  MISS:        104
cpu0_L2C PREFETCH  ACCESS:         48  HIT:          3  MISS:         45
cpu0_L2C WRITEBACK ACCESS:          1  HIT:          1  MISS:          0
cpu0_L2C TRANSLATION ACCESS:          1  HIT:          0  MISS:          1
cpu0_L2C PREFETCH  REQUESTED:         12  ISSUED:          6  USEFUL:          0  USELESS:          0
cpu0_L2C AVERAGE MISS LATENCY: 245.86 cycles
LLC TOTAL     ACCESS:       1190  HIT:          0  MISS:       1190
LLC LOAD      ACCESS:       1040  HIT:          0  MISS:       1040
LLC RFO       ACCESS:        104  HIT:          0  MISS:        104
LLC PREFETCH  ACCESS:         45  HIT:          0  MISS:         45
LLC WRITEBACK ACCESS:          0  HIT:          0  MISS:          0
LLC TRANSLATION ACCESS:          1  HIT:          0  MISS:          1
LLC PREFETCH  REQUESTED:          0  ISSUED:          0  USEFUL:          0  USELESS:          0
LLC AVERAGE MISS LATENCY: 218.86 cycles

DRAM Statistics
 CHANNEL 0
 RQ ROW_BUFFER_HIT:        611  ROW_BUFFER_MISS:        579
 DBUS AVG_CONGESTED_CYCLE:    3.80067
 WQ ROW_BUFFER_HIT:          0  ROW_BUFFER_MISS:          0  FULL:          0


CPU 0 Branch Prediction Accuracy: 85.4821% MPKI: 19.8503 Average ROB Occupancy at Mispredict: 22.3267
Branch type MPKI
BRANCH_DIRECT_JUMP: 7.9e-05
BRANCH_INDIRECT: 0
BRANCH_CONDITIONAL: 19.8501
BRANCH_DIRECT_CALL: 8.2e-05
BRANCH_INDIRECT_CALL: 0
BRANCH_RETURN: 8.3e-05

