
*** ChampSim Multicore Out-of-Order Simulator ***

Warmup Instructions: 1000000
Simulation Instructions: 1000000000
Number of CPUs: 1
Off-chip DRAM Size: 4 GiB Channels: 1 Width: 64-bit Data Rate: 3200 MT/s

VirtualMemory physical capacity: 8588881920 num_ppages: 2096895
VirtualMemory page size: 4096 log2_page_size: 12

CPU 0 runs tracer/pin/traces/spec2k17/625.x264_s-18B.champsimtrace.xz
Basic BTB sets: 1024 ways: 8 indirect buffer size: 4096 RAS size: 64
cpu0_L1D next line prefetcher
cpu0_L2C IP-based stride prefetcher
WARNING: The extended signature CACHE::prefetch_line(ip, base_addr, pf_addr, fill_this_level, prefetch_metadata) is deprecated.
WARNING: Use CACHE::prefetch_line(pf_addr, fill_this_level, prefetch_metadata) instead.

Warmup complete CPU 0 instructions: 1000003 cycles: 253064 (Simulation time: 0 hr 0 min 3 sec) 

Heartbeat CPU 0 instructions: 10000000 cycles: 4050315 heartbeat IPC: 2.46894 cumulative IPC: 2.37013 (Simulation time: 0 hr 0 min 36 sec) 
Heartbeat CPU 0 instructions: 20000000 cycles: 8226892 heartbeat IPC: 2.39431 cumulative IPC: 2.38279 (Simulation time: 0 hr 1 min 12 sec) 
Heartbeat CPU 0 instructions: 30000003 cycles: 12281136 heartbeat IPC: 2.46655 cumulative IPC: 2.41103 (Simulation time: 0 hr 1 min 47 sec) 
Heartbeat CPU 0 instructions: 40000003 cycles: 16303526 heartbeat IPC: 2.48608 cumulative IPC: 2.42984 (Simulation time: 0 hr 2 min 22 sec) 
Heartbeat CPU 0 instructions: 50000004 cycles: 20343391 heartbeat IPC: 2.47533 cumulative IPC: 2.43898 (Simulation time: 0 hr 2 min 57 sec) 
Heartbeat CPU 0 instructions: 60000004 cycles: 24395904 heartbeat IPC: 2.4676 cumulative IPC: 2.44379 (Simulation time: 0 hr 3 min 33 sec) 
Heartbeat CPU 0 instructions: 70000003 cycles: 28438106 heartbeat IPC: 2.4739 cumulative IPC: 2.44811 (Simulation time: 0 hr 4 min 7 sec) 
Heartbeat CPU 0 instructions: 80000003 cycles: 32467266 heartbeat IPC: 2.48191 cumulative IPC: 2.45233 (Simulation time: 0 hr 4 min 41 sec) 
Heartbeat CPU 0 instructions: 90000004 cycles: 36522826 heartbeat IPC: 2.46575 cumulative IPC: 2.45383 (Simulation time: 0 hr 5 min 17 sec) 
Heartbeat CPU 0 instructions: 100000001 cycles: 40523128 heartbeat IPC: 2.49981 cumulative IPC: 2.4584 (Simulation time: 0 hr 5 min 52 sec) 
Heartbeat CPU 0 instructions: 110000004 cycles: 44432464 heartbeat IPC: 2.55798 cumulative IPC: 2.46721 (Simulation time: 0 hr 6 min 29 sec) 
Heartbeat CPU 0 instructions: 120000003 cycles: 48352652 heartbeat IPC: 2.5509 cumulative IPC: 2.47403 (Simulation time: 0 hr 7 min 6 sec) 
Heartbeat CPU 0 instructions: 130000002 cycles: 52273432 heartbeat IPC: 2.55051 cumulative IPC: 2.4798 (Simulation time: 0 hr 7 min 43 sec) 
Heartbeat CPU 0 instructions: 140000003 cycles: 60308212 heartbeat IPC: 1.24459 cumulative IPC: 2.31454 (Simulation time: 0 hr 8 min 23 sec) 
Heartbeat CPU 0 instructions: 150000002 cycles: 65712823 heartbeat IPC: 1.85027 cumulative IPC: 2.27621 (Simulation time: 0 hr 9 min 4 sec) 
Heartbeat CPU 0 instructions: 160000001 cycles: 69553362 heartbeat IPC: 2.6038 cumulative IPC: 2.29436 (Simulation time: 0 hr 9 min 42 sec) 
Heartbeat CPU 0 instructions: 170000004 cycles: 73495378 heartbeat IPC: 2.53677 cumulative IPC: 2.30741 (Simulation time: 0 hr 10 min 20 sec) 
Heartbeat CPU 0 instructions: 180000002 cycles: 77253615 heartbeat IPC: 2.66082 cumulative IPC: 2.32466 (Simulation time: 0 hr 10 min 58 sec) 
Heartbeat CPU 0 instructions: 190000002 cycles: 81064082 heartbeat IPC: 2.62435 cumulative IPC: 2.33879 (Simulation time: 0 hr 11 min 36 sec) 
Heartbeat CPU 0 instructions: 200000000 cycles: 85010081 heartbeat IPC: 2.53421 cumulative IPC: 2.34789 (Simulation time: 0 hr 12 min 15 sec) 
Heartbeat CPU 0 instructions: 210000001 cycles: 88789352 heartbeat IPC: 2.64601 cumulative IPC: 2.36061 (Simulation time: 0 hr 12 min 55 sec) 
Heartbeat CPU 0 instructions: 220000002 cycles: 92627229 heartbeat IPC: 2.60561 cumulative IPC: 2.37079 (Simulation time: 0 hr 13 min 35 sec) 
Heartbeat CPU 0 instructions: 230000000 cycles: 96518653 heartbeat IPC: 2.56975 cumulative IPC: 2.37884 (Simulation time: 0 hr 14 min 15 sec) 
Heartbeat CPU 0 instructions: 240000004 cycles: 100353299 heartbeat IPC: 2.6078 cumulative IPC: 2.38761 (Simulation time: 0 hr 14 min 55 sec) 
Heartbeat CPU 0 instructions: 250000004 cycles: 104276195 heartbeat IPC: 2.54914 cumulative IPC: 2.3937 (Simulation time: 0 hr 15 min 37 sec) 
Heartbeat CPU 0 instructions: 260000001 cycles: 108078759 heartbeat IPC: 2.6298 cumulative IPC: 2.40202 (Simulation time: 0 hr 16 min 18 sec) 
Heartbeat CPU 0 instructions: 270000004 cycles: 111892101 heartbeat IPC: 2.62237 cumulative IPC: 2.40955 (Simulation time: 0 hr 17 min 1 sec) 
Heartbeat CPU 0 instructions: 280000000 cycles: 115833638 heartbeat IPC: 2.53708 cumulative IPC: 2.4139 (Simulation time: 0 hr 17 min 43 sec) 
Heartbeat CPU 0 instructions: 290000001 cycles: 119633366 heartbeat IPC: 2.63177 cumulative IPC: 2.42083 (Simulation time: 0 hr 18 min 24 sec) 
Heartbeat CPU 0 instructions: 300000002 cycles: 123423543 heartbeat IPC: 2.6384 cumulative IPC: 2.42753 (Simulation time: 0 hr 19 min 6 sec) 
Heartbeat CPU 0 instructions: 310000001 cycles: 127336384 heartbeat IPC: 2.55569 cumulative IPC: 2.43148 (Simulation time: 0 hr 19 min 48 sec) 
Heartbeat CPU 0 instructions: 320000001 cycles: 131119254 heartbeat IPC: 2.6435 cumulative IPC: 2.4376 (Simulation time: 0 hr 20 min 29 sec) 
Heartbeat CPU 0 instructions: 330000002 cycles: 134890509 heartbeat IPC: 2.65164 cumulative IPC: 2.4436 (Simulation time: 0 hr 21 min 11 sec) 
Heartbeat CPU 0 instructions: 340000000 cycles: 138666746 heartbeat IPC: 2.64814 cumulative IPC: 2.44918 (Simulation time: 0 hr 21 min 53 sec) 
Heartbeat CPU 0 instructions: 350000000 cycles: 142450961 heartbeat IPC: 2.64256 cumulative IPC: 2.45433 (Simulation time: 0 hr 22 min 34 sec) 
Heartbeat CPU 0 instructions: 360000004 cycles: 146226406 heartbeat IPC: 2.6487 cumulative IPC: 2.45935 (Simulation time: 0 hr 23 min 16 sec) 
Heartbeat CPU 0 instructions: 370000000 cycles: 150008784 heartbeat IPC: 2.64384 cumulative IPC: 2.46401 (Simulation time: 0 hr 23 min 58 sec) 
Heartbeat CPU 0 instructions: 380000002 cycles: 153790286 heartbeat IPC: 2.64445 cumulative IPC: 2.46846 (Simulation time: 0 hr 24 min 40 sec) 
Heartbeat CPU 0 instructions: 390000002 cycles: 157596842 heartbeat IPC: 2.62705 cumulative IPC: 2.47229 (Simulation time: 0 hr 25 min 22 sec) 
Heartbeat CPU 0 instructions: 400000001 cycles: 172179774 heartbeat IPC: 0.685733 cumulative IPC: 2.32076 (Simulation time: 0 hr 27 min 0 sec) 
Heartbeat CPU 0 instructions: 410000000 cycles: 176844921 heartbeat IPC: 2.14355 cumulative IPC: 2.31608 (Simulation time: 0 hr 27 min 57 sec) 
Heartbeat CPU 0 instructions: 420000002 cycles: 182229610 heartbeat IPC: 1.85712 cumulative IPC: 2.30249 (Simulation time: 0 hr 28 min 49 sec) 
Heartbeat CPU 0 instructions: 430000003 cycles: 186833864 heartbeat IPC: 2.1719 cumulative IPC: 2.29927 (Simulation time: 0 hr 29 min 36 sec) 
Heartbeat CPU 0 instructions: 440000001 cycles: 190704986 heartbeat IPC: 2.58323 cumulative IPC: 2.30504 (Simulation time: 0 hr 30 min 20 sec) 
Heartbeat CPU 0 instructions: 450000001 cycles: 194514960 heartbeat IPC: 2.62469 cumulative IPC: 2.31131 (Simulation time: 0 hr 31 min 4 sec) 
Heartbeat CPU 0 instructions: 460000004 cycles: 198391692 heartbeat IPC: 2.57949 cumulative IPC: 2.31656 (Simulation time: 0 hr 31 min 48 sec) 
Heartbeat CPU 0 instructions: 470000003 cycles: 202283067 heartbeat IPC: 2.56979 cumulative IPC: 2.32144 (Simulation time: 0 hr 32 min 32 sec) 
Heartbeat CPU 0 instructions: 480000002 cycles: 206139843 heartbeat IPC: 2.59284 cumulative IPC: 2.32652 (Simulation time: 0 hr 33 min 17 sec) 
Heartbeat CPU 0 instructions: 490000003 cycles: 210072630 heartbeat IPC: 2.54273 cumulative IPC: 2.33057 (Simulation time: 0 hr 34 min 1 sec) 
Heartbeat CPU 0 instructions: 500000003 cycles: 213970533 heartbeat IPC: 2.56548 cumulative IPC: 2.33486 (Simulation time: 0 hr 34 min 46 sec) 
Heartbeat CPU 0 instructions: 510000004 cycles: 217846059 heartbeat IPC: 2.5803 cumulative IPC: 2.33923 (Simulation time: 0 hr 35 min 31 sec) 
Heartbeat CPU 0 instructions: 520000003 cycles: 221662824 heartbeat IPC: 2.62002 cumulative IPC: 2.34407 (Simulation time: 0 hr 36 min 15 sec) 
Heartbeat CPU 0 instructions: 530000001 cycles: 225511544 heartbeat IPC: 2.59827 cumulative IPC: 2.34841 (Simulation time: 0 hr 36 min 59 sec) 
Heartbeat CPU 0 instructions: 540000004 cycles: 229395905 heartbeat IPC: 2.57443 cumulative IPC: 2.35224 (Simulation time: 0 hr 37 min 44 sec) 
Heartbeat CPU 0 instructions: 550000001 cycles: 233155596 heartbeat IPC: 2.65979 cumulative IPC: 2.35721 (Simulation time: 0 hr 38 min 28 sec) 
Heartbeat CPU 0 instructions: 560000000 cycles: 236973271 heartbeat IPC: 2.6194 cumulative IPC: 2.36144 (Simulation time: 0 hr 39 min 12 sec) 
Heartbeat CPU 0 instructions: 570000003 cycles: 251690821 heartbeat IPC: 0.679461 cumulative IPC: 2.26299 (Simulation time: 0 hr 40 min 54 sec) 
Heartbeat CPU 0 instructions: 580000003 cycles: 257531122 heartbeat IPC: 1.71224 cumulative IPC: 2.25048 (Simulation time: 0 hr 42 min 2 sec) 
Heartbeat CPU 0 instructions: 590000004 cycles: 262104419 heartbeat IPC: 2.18661 cumulative IPC: 2.24937 (Simulation time: 0 hr 42 min 46 sec) 
Heartbeat CPU 0 instructions: 600000003 cycles: 266459679 heartbeat IPC: 2.29607 cumulative IPC: 2.25013 (Simulation time: 0 hr 43 min 34 sec) 
Heartbeat CPU 0 instructions: 610000000 cycles: 270857293 heartbeat IPC: 2.27396 cumulative IPC: 2.25052 (Simulation time: 0 hr 44 min 23 sec) 
Heartbeat CPU 0 instructions: 620000003 cycles: 275199674 heartbeat IPC: 2.30288 cumulative IPC: 2.25135 (Simulation time: 0 hr 45 min 10 sec) 
Heartbeat CPU 0 instructions: 630000003 cycles: 279538514 heartbeat IPC: 2.30476 cumulative IPC: 2.25218 (Simulation time: 0 hr 45 min 57 sec) 
Heartbeat CPU 0 instructions: 640000003 cycles: 283872138 heartbeat IPC: 2.30754 cumulative IPC: 2.25302 (Simulation time: 0 hr 46 min 44 sec) 
Heartbeat CPU 0 instructions: 650000002 cycles: 288190766 heartbeat IPC: 2.31555 cumulative IPC: 2.25396 (Simulation time: 0 hr 47 min 34 sec) 
Heartbeat CPU 0 instructions: 660000000 cycles: 292491101 heartbeat IPC: 2.3254 cumulative IPC: 2.25501 (Simulation time: 0 hr 48 min 22 sec) 
Heartbeat CPU 0 instructions: 670000001 cycles: 306647070 heartbeat IPC: 0.706416 cumulative IPC: 2.18346 (Simulation time: 0 hr 50 min 6 sec) 
Heartbeat CPU 0 instructions: 680000002 cycles: 312285381 heartbeat IPC: 1.77358 cumulative IPC: 2.17606 (Simulation time: 0 hr 51 min 8 sec) 
Heartbeat CPU 0 instructions: 690000001 cycles: 316863758 heartbeat IPC: 2.18418 cumulative IPC: 2.17617 (Simulation time: 0 hr 51 min 54 sec) 
Heartbeat CPU 0 instructions: 700000001 cycles: 321253437 heartbeat IPC: 2.27807 cumulative IPC: 2.17757 (Simulation time: 0 hr 52 min 44 sec) 
Heartbeat CPU 0 instructions: 710000001 cycles: 325611969 heartbeat IPC: 2.29435 cumulative IPC: 2.17913 (Simulation time: 0 hr 53 min 33 sec) 
Heartbeat CPU 0 instructions: 720000001 cycles: 329949313 heartbeat IPC: 2.30556 cumulative IPC: 2.1808 (Simulation time: 0 hr 54 min 21 sec) 
Heartbeat CPU 0 instructions: 730000000 cycles: 334305413 heartbeat IPC: 2.29563 cumulative IPC: 2.18229 (Simulation time: 0 hr 55 min 9 sec) 
Heartbeat CPU 0 instructions: 740000003 cycles: 338621556 heartbeat IPC: 2.31688 cumulative IPC: 2.18401 (Simulation time: 0 hr 55 min 57 sec) 
Heartbeat CPU 0 instructions: 750000001 cycles: 342954232 heartbeat IPC: 2.30804 cumulative IPC: 2.18558 (Simulation time: 0 hr 56 min 46 sec) 
Heartbeat CPU 0 instructions: 760000000 cycles: 356908688 heartbeat IPC: 0.716617 cumulative IPC: 2.1281 (Simulation time: 0 hr 58 min 25 sec) 
Heartbeat CPU 0 instructions: 770000004 cycles: 361698757 heartbeat IPC: 2.08765 cumulative IPC: 2.12757 (Simulation time: 0 hr 59 min 24 sec) 
Heartbeat CPU 0 instructions: 780000001 cycles: 367040112 heartbeat IPC: 1.87218 cumulative IPC: 2.12385 (Simulation time: 1 hr 0 min 18 sec) 
Heartbeat CPU 0 instructions: 790000000 cycles: 370766987 heartbeat IPC: 2.68321 cumulative IPC: 2.12947 (Simulation time: 1 hr 1 min 1 sec) 
Heartbeat CPU 0 instructions: 800000002 cycles: 374493103 heartbeat IPC: 2.68376 cumulative IPC: 2.13499 (Simulation time: 1 hr 1 min 43 sec) 
Heartbeat CPU 0 instructions: 810000004 cycles: 378222288 heartbeat IPC: 2.68155 cumulative IPC: 2.14039 (Simulation time: 1 hr 2 min 24 sec) 
Heartbeat CPU 0 instructions: 820000000 cycles: 381958108 heartbeat IPC: 2.67679 cumulative IPC: 2.14564 (Simulation time: 1 hr 3 min 6 sec) 
Heartbeat CPU 0 instructions: 830000001 cycles: 385683845 heartbeat IPC: 2.68403 cumulative IPC: 2.15084 (Simulation time: 1 hr 3 min 48 sec) 
Heartbeat CPU 0 instructions: 840000001 cycles: 389428908 heartbeat IPC: 2.67018 cumulative IPC: 2.15584 (Simulation time: 1 hr 4 min 30 sec) 
Heartbeat CPU 0 instructions: 850000000 cycles: 393138844 heartbeat IPC: 2.69546 cumulative IPC: 2.16093 (Simulation time: 1 hr 5 min 12 sec) 
Heartbeat CPU 0 instructions: 860000001 cycles: 396835966 heartbeat IPC: 2.70481 cumulative IPC: 2.166 (Simulation time: 1 hr 5 min 53 sec) 
Heartbeat CPU 0 instructions: 870000004 cycles: 400531860 heartbeat IPC: 2.70571 cumulative IPC: 2.17099 (Simulation time: 1 hr 6 min 35 sec) 
Heartbeat CPU 0 instructions: 880000001 cycles: 404290383 heartbeat IPC: 2.66062 cumulative IPC: 2.17554 (Simulation time: 1 hr 7 min 17 sec) 
Heartbeat CPU 0 instructions: 890000001 cycles: 408066893 heartbeat IPC: 2.64795 cumulative IPC: 2.17992 (Simulation time: 1 hr 7 min 59 sec) 
Heartbeat CPU 0 instructions: 900000000 cycles: 411834441 heartbeat IPC: 2.65425 cumulative IPC: 2.18426 (Simulation time: 1 hr 8 min 42 sec) 
Heartbeat CPU 0 instructions: 910000000 cycles: 415601509 heartbeat IPC: 2.65458 cumulative IPC: 2.18852 (Simulation time: 1 hr 9 min 23 sec) 
Heartbeat CPU 0 instructions: 920000000 cycles: 419378617 heartbeat IPC: 2.64753 cumulative IPC: 2.19266 (Simulation time: 1 hr 10 min 5 sec) 
Heartbeat CPU 0 instructions: 930000000 cycles: 423170539 heartbeat IPC: 2.63719 cumulative IPC: 2.19665 (Simulation time: 1 hr 10 min 47 sec) 
Heartbeat CPU 0 instructions: 940000000 cycles: 426936856 heartbeat IPC: 2.65511 cumulative IPC: 2.20069 (Simulation time: 1 hr 11 min 30 sec) 
Heartbeat CPU 0 instructions: 950000002 cycles: 430712446 heartbeat IPC: 2.64859 cumulative IPC: 2.20462 (Simulation time: 1 hr 12 min 12 sec) 
Heartbeat CPU 0 instructions: 960000002 cycles: 434492328 heartbeat IPC: 2.64559 cumulative IPC: 2.20846 (Simulation time: 1 hr 12 min 54 sec) 
Heartbeat CPU 0 instructions: 970000000 cycles: 438260802 heartbeat IPC: 2.65359 cumulative IPC: 2.21229 (Simulation time: 1 hr 13 min 36 sec) 
Heartbeat CPU 0 instructions: 980000001 cycles: 441995146 heartbeat IPC: 2.67785 cumulative IPC: 2.21623 (Simulation time: 1 hr 14 min 19 sec) 
Heartbeat CPU 0 instructions: 990000000 cycles: 445765235 heartbeat IPC: 2.65246 cumulative IPC: 2.21992 (Simulation time: 1 hr 15 min 1 sec) 
Heartbeat CPU 0 instructions: 1000000002 cycles: 449537760 heartbeat IPC: 2.65075 cumulative IPC: 2.22353 (Simulation time: 1 hr 15 min 44 sec) 
Finished CPU 0 instructions: 1000000003 cycles: 449656048 cumulative IPC: 2.22392 (Simulation time: 1 hr 15 min 49 sec) 

ChampSim completed all CPUs

Region of Interest Statistics

CPU 0 cumulative IPC: 2.22392 instructions: 1000000003 cycles: 449656048
cpu0_DTLB TOTAL     ACCESS:  128473574  HIT:  127327126  MISS:    1146448
cpu0_DTLB LOAD      ACCESS:   91146749  HIT:   90405988  MISS:     740761
cpu0_DTLB RFO       ACCESS:   37326825  HIT:   36921138  MISS:     405687
cpu0_DTLB PREFETCH  ACCESS:          0  HIT:          0  MISS:          0
cpu0_DTLB WRITEBACK ACCESS:          0  HIT:          0  MISS:          0
cpu0_DTLB TRANSLATION ACCESS:          0  HIT:          0  MISS:          0
cpu0_DTLB PREFETCH  REQUESTED:          0  ISSUED:          0  USEFUL:          0  USELESS:          0
cpu0_DTLB AVERAGE MISS LATENCY: 11.3033 cycles
cpu0_ITLB TOTAL     ACCESS:   44086500  HIT:   44084343  MISS:       2157
cpu0_ITLB LOAD      ACCESS:   44086500  HIT:   44084343  MISS:       2157
cpu0_ITLB RFO       ACCESS:          0  HIT:          0  MISS:          0
cpu0_ITLB PREFETCH  ACCESS:          0  HIT:          0  MISS:          0
cpu0_ITLB WRITEBACK ACCESS:          0  HIT:          0  MISS:          0
cpu0_ITLB TRANSLATION ACCESS:          0  HIT:          0  MISS:          0
cpu0_ITLB PREFETCH  REQUESTED:          0  ISSUED:          0  USEFUL:          0  USELESS:          0
cpu0_ITLB AVERAGE MISS LATENCY: 33.9101 cycles
cpu0_L1I TOTAL     ACCESS:   30120702  HIT:   28137083  MISS:    1983619
cpu0_L1I LOAD      ACCESS:   30120702  HIT:   28137083  MISS:    1983619
cpu0_L1I RFO       ACCESS:          0  HIT:          0  MISS:          0
cpu0_L1I PREFETCH  ACCESS:          0  HIT:          0  MISS:          0
cpu0_L1I WRITEBACK ACCESS:          0  HIT:          0  MISS:          0
cpu0_L1I TRANSLATION ACCESS:          0  HIT:          0  MISS:          0
cpu0_L1I PREFETCH  REQUESTED:          0  ISSUED:          0  USEFUL:          0  USELESS:          0
cpu0_L1I AVERAGE MISS LATENCY: 16.491 cycles
cpu0_STLB TOTAL     ACCESS:    1148605  HIT:    1131112  MISS:      17493
cpu0_STLB LOAD      ACCESS:     742918  HIT:     731769  MISS:      11149
cpu0_STLB RFO       ACCESS:     405687  HIT:     399343  MISS:       6344
cpu0_STLB PREFETCH  ACCESS:          0  HIT:          0  MISS:          0
cpu0_STLB WRITEBACK ACCESS:          0  HIT:          0  MISS:          0
cpu0_STLB TRANSLATION ACCESS:          0  HIT:          0  MISS:          0
cpu0_STLB PREFETCH  REQUESTED:          0  ISSUED:          0  USEFUL:          0  USELESS:          0
cpu0_STLB AVERAGE MISS LATENCY: 151.298 cycles
cpu0_L1D TOTAL     ACCESS:  240326030  HIT:  234606221  MISS:    5719809
cpu0_L1D LOAD      ACCESS:   88530740  HIT:   86295885  MISS:    2234855
cpu0_L1D RFO       ACCESS:   67499958  HIT:   66344939  MISS:    1155019
cpu0_L1D PREFETCH  ACCESS:   84279260  HIT:   81951562  MISS:    2327698
cpu0_L1D WRITEBACK ACCESS:          0  HIT:          0  MISS:          0
cpu0_L1D TRANSLATION ACCESS:      16072  HIT:      13835  MISS:       2237
cpu0_L1D PREFETCH  REQUESTED:   89590435  ISSUED:   87279175  USEFUL:    1581990  USELESS:     834260
cpu0_L1D AVERAGE MISS LATENCY: 138.478 cycles
cpu0_L2C TOTAL     ACCESS:    9885524  HIT:    8293040  MISS:    1592484
cpu0_L2C LOAD      ACCESS:    4131096  HIT:    3694056  MISS:     437040
cpu0_L2C RFO       ACCESS:    1149242  HIT:     762316  MISS:     386926
cpu0_L2C PREFETCH  ACCESS:    3184281  HIT:    2420163  MISS:     764118
cpu0_L2C WRITEBACK ACCESS:    1418668  HIT:    1415002  MISS:       3666
cpu0_L2C TRANSLATION ACCESS:       2237  HIT:       1503  MISS:        734
cpu0_L2C PREFETCH  REQUESTED:     965698  ISSUED:     811420  USEFUL:      30593  USELESS:      13713
cpu0_L2C AVERAGE MISS LATENCY: 502.492 cycles
LLC TOTAL     ACCESS:    2124312  HIT:     914421  MISS:    1209891
LLC LOAD      ACCESS:     437037  HIT:     147449  MISS:     289588
LLC RFO       ACCESS:     386810  HIT:      15279  MISS:     371531
LLC PREFETCH  ACCESS:     772064  HIT:     237535  MISS:     534529
LLC WRITEBACK ACCESS:     527667  HIT:     513532  MISS:      14135
LLC TRANSLATION ACCESS:        734  HIT:        626  MISS:        108
LLC PREFETCH  REQUESTED:          0  ISSUED:          0  USEFUL:          0  USELESS:          0
LLC AVERAGE MISS LATENCY: 631.981 cycles

DRAM Statistics
 CHANNEL 0
 RQ ROW_BUFFER_HIT:      70655  ROW_BUFFER_MISS:    1124606
 DBUS AVG_CONGESTED_CYCLE:    3.95431
 WQ ROW_BUFFER_HIT:      21289  ROW_BUFFER_MISS:     471844  FULL:          0


CPU 0 Branch Prediction Accuracy: 92.228% MPKI: 3.12108 Average ROB Occupancy at Mispredict: 80.7228
Branch type MPKI
BRANCH_DIRECT_JUMP: 0.000274
BRANCH_INDIRECT: 0.000875
BRANCH_CONDITIONAL: 3.02896
BRANCH_DIRECT_CALL: 0.000472
BRANCH_INDIRECT_CALL: 0.019393
BRANCH_RETURN: 0.0711

