
*** ChampSim Multicore Out-of-Order Simulator ***

Warmup Instructions: 1000000
Simulation Instructions: 1000000000
Number of CPUs: 1
Off-chip DRAM Size: 4 GiB Channels: 1 Width: 64-bit Data Rate: 3200 MT/s

VirtualMemory physical capacity: 8588881920 num_ppages: 2096895
VirtualMemory page size: 4096 log2_page_size: 12

CPU 0 runs tracer/pin/traces/spec2k6/465.tonto-1914B.champsimtrace.xz
Basic BTB sets: 1024 ways: 8 indirect buffer size: 4096 RAS size: 64
cpu0_L1D next line prefetcher
cpu0_L2C IP-based stride prefetcher
WARNING: The extended signature CACHE::prefetch_line(ip, base_addr, pf_addr, fill_this_level, prefetch_metadata) is deprecated.
WARNING: Use CACHE::prefetch_line(pf_addr, fill_this_level, prefetch_metadata) instead.

Warmup complete CPU 0 instructions: 1000004 cycles: 285486 (Simulation time: 0 hr 0 min 4 sec) 

Heartbeat CPU 0 instructions: 10000000 cycles: 6296178 heartbeat IPC: 1.58827 cumulative IPC: 1.49733 (Simulation time: 0 hr 0 min 53 sec) 
Heartbeat CPU 0 instructions: 20000004 cycles: 12651519 heartbeat IPC: 1.57348 cumulative IPC: 1.53647 (Simulation time: 0 hr 1 min 50 sec) 
Heartbeat CPU 0 instructions: 30000003 cycles: 18448275 heartbeat IPC: 1.7251 cumulative IPC: 1.59667 (Simulation time: 0 hr 2 min 39 sec) 
Heartbeat CPU 0 instructions: 40000002 cycles: 24187318 heartbeat IPC: 1.74245 cumulative IPC: 1.63167 (Simulation time: 0 hr 3 min 28 sec) 
Heartbeat CPU 0 instructions: 50000002 cycles: 30371332 heartbeat IPC: 1.61707 cumulative IPC: 1.62867 (Simulation time: 0 hr 4 min 22 sec) 
Heartbeat CPU 0 instructions: 60000000 cycles: 36650273 heartbeat IPC: 1.59262 cumulative IPC: 1.62245 (Simulation time: 0 hr 5 min 18 sec) 
Heartbeat CPU 0 instructions: 70000002 cycles: 42791625 heartbeat IPC: 1.62831 cumulative IPC: 1.62329 (Simulation time: 0 hr 6 min 13 sec) 
Heartbeat CPU 0 instructions: 80000000 cycles: 48798330 heartbeat IPC: 1.66481 cumulative IPC: 1.62843 (Simulation time: 0 hr 7 min 7 sec) 
Heartbeat CPU 0 instructions: 90000002 cycles: 54546459 heartbeat IPC: 1.7397 cumulative IPC: 1.64022 (Simulation time: 0 hr 7 min 56 sec) 
Heartbeat CPU 0 instructions: 100000003 cycles: 60310486 heartbeat IPC: 1.7349 cumulative IPC: 1.64931 (Simulation time: 0 hr 8 min 45 sec) 
Heartbeat CPU 0 instructions: 110000000 cycles: 66259354 heartbeat IPC: 1.68099 cumulative IPC: 1.65217 (Simulation time: 0 hr 9 min 36 sec) 
Heartbeat CPU 0 instructions: 120000002 cycles: 72829482 heartbeat IPC: 1.52204 cumulative IPC: 1.64038 (Simulation time: 0 hr 10 min 36 sec) 
Heartbeat CPU 0 instructions: 130000003 cycles: 79197657 heartbeat IPC: 1.57031 cumulative IPC: 1.63473 (Simulation time: 0 hr 11 min 35 sec) 
Heartbeat CPU 0 instructions: 140000004 cycles: 85457528 heartbeat IPC: 1.59748 cumulative IPC: 1.63199 (Simulation time: 0 hr 12 min 33 sec) 
Heartbeat CPU 0 instructions: 150000001 cycles: 91586430 heartbeat IPC: 1.63161 cumulative IPC: 1.63197 (Simulation time: 0 hr 13 min 35 sec) 
Heartbeat CPU 0 instructions: 160000002 cycles: 97286323 heartbeat IPC: 1.75442 cumulative IPC: 1.63916 (Simulation time: 0 hr 14 min 30 sec) 
Heartbeat CPU 0 instructions: 170000000 cycles: 103058016 heartbeat IPC: 1.73259 cumulative IPC: 1.64441 (Simulation time: 0 hr 15 min 24 sec) 
Heartbeat CPU 0 instructions: 180000004 cycles: 108774132 heartbeat IPC: 1.74944 cumulative IPC: 1.64994 (Simulation time: 0 hr 16 min 16 sec) 
Heartbeat CPU 0 instructions: 190000002 cycles: 114477935 heartbeat IPC: 1.75322 cumulative IPC: 1.6551 (Simulation time: 0 hr 17 min 10 sec) 
Heartbeat CPU 0 instructions: 200000000 cycles: 120731886 heartbeat IPC: 1.59899 cumulative IPC: 1.65219 (Simulation time: 0 hr 18 min 8 sec) 
Heartbeat CPU 0 instructions: 210000001 cycles: 127160071 heartbeat IPC: 1.55565 cumulative IPC: 1.6473 (Simulation time: 0 hr 19 min 11 sec) 
Heartbeat CPU 0 instructions: 220000004 cycles: 133401019 heartbeat IPC: 1.60232 cumulative IPC: 1.64519 (Simulation time: 0 hr 20 min 10 sec) 
Heartbeat CPU 0 instructions: 230000003 cycles: 139351855 heartbeat IPC: 1.68044 cumulative IPC: 1.6467 (Simulation time: 0 hr 21 min 6 sec) 
Heartbeat CPU 0 instructions: 240000000 cycles: 145261022 heartbeat IPC: 1.69229 cumulative IPC: 1.64855 (Simulation time: 0 hr 22 min 3 sec) 
Heartbeat CPU 0 instructions: 250000001 cycles: 151262153 heartbeat IPC: 1.66635 cumulative IPC: 1.64926 (Simulation time: 0 hr 22 min 58 sec) 
Heartbeat CPU 0 instructions: 260000002 cycles: 157212127 heartbeat IPC: 1.68068 cumulative IPC: 1.65045 (Simulation time: 0 hr 23 min 55 sec) 
Heartbeat CPU 0 instructions: 270000004 cycles: 163082308 heartbeat IPC: 1.70353 cumulative IPC: 1.65237 (Simulation time: 0 hr 24 min 51 sec) 
Heartbeat CPU 0 instructions: 280000003 cycles: 169181302 heartbeat IPC: 1.63961 cumulative IPC: 1.65191 (Simulation time: 0 hr 25 min 48 sec) 
Heartbeat CPU 0 instructions: 290000004 cycles: 175217492 heartbeat IPC: 1.65667 cumulative IPC: 1.65207 (Simulation time: 0 hr 26 min 46 sec) 
Heartbeat CPU 0 instructions: 300000004 cycles: 181087269 heartbeat IPC: 1.70364 cumulative IPC: 1.65374 (Simulation time: 0 hr 27 min 45 sec) 
Heartbeat CPU 0 instructions: 310000002 cycles: 186994587 heartbeat IPC: 1.69282 cumulative IPC: 1.65498 (Simulation time: 0 hr 28 min 39 sec) 
Heartbeat CPU 0 instructions: 320000002 cycles: 193058598 heartbeat IPC: 1.64907 cumulative IPC: 1.6548 (Simulation time: 0 hr 29 min 35 sec) 
Heartbeat CPU 0 instructions: 330000001 cycles: 199102084 heartbeat IPC: 1.65467 cumulative IPC: 1.65479 (Simulation time: 0 hr 30 min 33 sec) 
Heartbeat CPU 0 instructions: 340000000 cycles: 204993710 heartbeat IPC: 1.69732 cumulative IPC: 1.65602 (Simulation time: 0 hr 31 min 28 sec) 
Heartbeat CPU 0 instructions: 350000004 cycles: 210936807 heartbeat IPC: 1.68263 cumulative IPC: 1.65677 (Simulation time: 0 hr 32 min 24 sec) 
Heartbeat CPU 0 instructions: 360000002 cycles: 216833897 heartbeat IPC: 1.69575 cumulative IPC: 1.65783 (Simulation time: 0 hr 33 min 16 sec) 
Heartbeat CPU 0 instructions: 370000001 cycles: 222852359 heartbeat IPC: 1.66155 cumulative IPC: 1.65793 (Simulation time: 0 hr 34 min 14 sec) 
Heartbeat CPU 0 instructions: 380000004 cycles: 228714716 heartbeat IPC: 1.7058 cumulative IPC: 1.65916 (Simulation time: 0 hr 35 min 9 sec) 
Heartbeat CPU 0 instructions: 390000001 cycles: 234695046 heartbeat IPC: 1.67215 cumulative IPC: 1.65949 (Simulation time: 0 hr 36 min 2 sec) 
Heartbeat CPU 0 instructions: 400000000 cycles: 240784747 heartbeat IPC: 1.64212 cumulative IPC: 1.65905 (Simulation time: 0 hr 36 min 58 sec) 
Heartbeat CPU 0 instructions: 410000000 cycles: 246686710 heartbeat IPC: 1.69435 cumulative IPC: 1.65989 (Simulation time: 0 hr 37 min 56 sec) 
Heartbeat CPU 0 instructions: 420000001 cycles: 252539498 heartbeat IPC: 1.70859 cumulative IPC: 1.66102 (Simulation time: 0 hr 38 min 47 sec) 
Heartbeat CPU 0 instructions: 430000003 cycles: 258505742 heartbeat IPC: 1.6761 cumulative IPC: 1.66137 (Simulation time: 0 hr 39 min 38 sec) 
Heartbeat CPU 0 instructions: 440000001 cycles: 264575288 heartbeat IPC: 1.64757 cumulative IPC: 1.66106 (Simulation time: 0 hr 40 min 32 sec) 
Heartbeat CPU 0 instructions: 450000001 cycles: 270513656 heartbeat IPC: 1.68396 cumulative IPC: 1.66156 (Simulation time: 0 hr 41 min 26 sec) 
Heartbeat CPU 0 instructions: 460000003 cycles: 276143411 heartbeat IPC: 1.77628 cumulative IPC: 1.6639 (Simulation time: 0 hr 42 min 17 sec) 
Heartbeat CPU 0 instructions: 470000003 cycles: 282178393 heartbeat IPC: 1.65701 cumulative IPC: 1.66375 (Simulation time: 0 hr 43 min 12 sec) 
Heartbeat CPU 0 instructions: 480000003 cycles: 287954189 heartbeat IPC: 1.73136 cumulative IPC: 1.66511 (Simulation time: 0 hr 44 min 8 sec) 
Heartbeat CPU 0 instructions: 490000003 cycles: 293593472 heartbeat IPC: 1.77328 cumulative IPC: 1.66719 (Simulation time: 0 hr 44 min 59 sec) 
Heartbeat CPU 0 instructions: 500000001 cycles: 299482671 heartbeat IPC: 1.69802 cumulative IPC: 1.6678 (Simulation time: 0 hr 45 min 52 sec) 
Heartbeat CPU 0 instructions: 510000000 cycles: 305511207 heartbeat IPC: 1.65878 cumulative IPC: 1.66762 (Simulation time: 0 hr 46 min 48 sec) 
Heartbeat CPU 0 instructions: 520000001 cycles: 311398199 heartbeat IPC: 1.69866 cumulative IPC: 1.66821 (Simulation time: 0 hr 47 min 44 sec) 
Heartbeat CPU 0 instructions: 530000000 cycles: 317100104 heartbeat IPC: 1.7538 cumulative IPC: 1.66975 (Simulation time: 0 hr 48 min 39 sec) 
Heartbeat CPU 0 instructions: 540000004 cycles: 322783773 heartbeat IPC: 1.75943 cumulative IPC: 1.67133 (Simulation time: 0 hr 49 min 31 sec) 
Heartbeat CPU 0 instructions: 550000001 cycles: 328583587 heartbeat IPC: 1.72419 cumulative IPC: 1.67226 (Simulation time: 0 hr 50 min 23 sec) 
Heartbeat CPU 0 instructions: 560000002 cycles: 334730530 heartbeat IPC: 1.62683 cumulative IPC: 1.67143 (Simulation time: 0 hr 51 min 19 sec) 
Heartbeat CPU 0 instructions: 570000002 cycles: 340766298 heartbeat IPC: 1.65679 cumulative IPC: 1.67117 (Simulation time: 0 hr 52 min 14 sec) 
Heartbeat CPU 0 instructions: 580000004 cycles: 346610480 heartbeat IPC: 1.7111 cumulative IPC: 1.67184 (Simulation time: 0 hr 53 min 12 sec) 
Heartbeat CPU 0 instructions: 590000001 cycles: 352430583 heartbeat IPC: 1.71818 cumulative IPC: 1.67261 (Simulation time: 0 hr 54 min 9 sec) 
Heartbeat CPU 0 instructions: 600000004 cycles: 358062382 heartbeat IPC: 1.77563 cumulative IPC: 1.67423 (Simulation time: 0 hr 55 min 2 sec) 
Heartbeat CPU 0 instructions: 610000001 cycles: 363894031 heartbeat IPC: 1.71478 cumulative IPC: 1.67488 (Simulation time: 0 hr 55 min 54 sec) 
Heartbeat CPU 0 instructions: 620000000 cycles: 369628452 heartbeat IPC: 1.74385 cumulative IPC: 1.67595 (Simulation time: 0 hr 56 min 45 sec) 
Heartbeat CPU 0 instructions: 630000002 cycles: 375538207 heartbeat IPC: 1.69212 cumulative IPC: 1.6762 (Simulation time: 0 hr 57 min 36 sec) 
Heartbeat CPU 0 instructions: 640000004 cycles: 381704105 heartbeat IPC: 1.62182 cumulative IPC: 1.67532 (Simulation time: 0 hr 58 min 29 sec) 
Heartbeat CPU 0 instructions: 650000002 cycles: 387557023 heartbeat IPC: 1.70855 cumulative IPC: 1.67583 (Simulation time: 0 hr 59 min 20 sec) 
Heartbeat CPU 0 instructions: 660000002 cycles: 393431121 heartbeat IPC: 1.70239 cumulative IPC: 1.67622 (Simulation time: 1 hr 0 min 11 sec) 
Heartbeat CPU 0 instructions: 670000003 cycles: 399171812 heartbeat IPC: 1.74195 cumulative IPC: 1.67717 (Simulation time: 1 hr 1 min 0 sec) 
Heartbeat CPU 0 instructions: 680000001 cycles: 405124942 heartbeat IPC: 1.67979 cumulative IPC: 1.67721 (Simulation time: 1 hr 1 min 54 sec) 
Heartbeat CPU 0 instructions: 690000000 cycles: 410869857 heartbeat IPC: 1.74067 cumulative IPC: 1.6781 (Simulation time: 1 hr 2 min 46 sec) 
Heartbeat CPU 0 instructions: 700000003 cycles: 416536612 heartbeat IPC: 1.76468 cumulative IPC: 1.67927 (Simulation time: 1 hr 3 min 34 sec) 
Heartbeat CPU 0 instructions: 710000003 cycles: 422501964 heartbeat IPC: 1.67635 cumulative IPC: 1.67923 (Simulation time: 1 hr 4 min 25 sec) 
Heartbeat CPU 0 instructions: 720000003 cycles: 428473367 heartbeat IPC: 1.67465 cumulative IPC: 1.67917 (Simulation time: 1 hr 5 min 18 sec) 
Heartbeat CPU 0 instructions: 730000000 cycles: 434366079 heartbeat IPC: 1.69701 cumulative IPC: 1.67941 (Simulation time: 1 hr 6 min 11 sec) 
Heartbeat CPU 0 instructions: 740000003 cycles: 440009332 heartbeat IPC: 1.77203 cumulative IPC: 1.6806 (Simulation time: 1 hr 7 min 2 sec) 
Heartbeat CPU 0 instructions: 750000000 cycles: 445784456 heartbeat IPC: 1.73156 cumulative IPC: 1.68126 (Simulation time: 1 hr 7 min 52 sec) 
Heartbeat CPU 0 instructions: 760000000 cycles: 451559271 heartbeat IPC: 1.73166 cumulative IPC: 1.68191 (Simulation time: 1 hr 8 min 41 sec) 
Heartbeat CPU 0 instructions: 770000000 cycles: 457705937 heartbeat IPC: 1.6269 cumulative IPC: 1.68117 (Simulation time: 1 hr 9 min 31 sec) 
Heartbeat CPU 0 instructions: 780000000 cycles: 463693383 heartbeat IPC: 1.67016 cumulative IPC: 1.68102 (Simulation time: 1 hr 10 min 24 sec) 
Heartbeat CPU 0 instructions: 790000001 cycles: 469566155 heartbeat IPC: 1.70277 cumulative IPC: 1.6813 (Simulation time: 1 hr 11 min 18 sec) 
Heartbeat CPU 0 instructions: 800000000 cycles: 475306460 heartbeat IPC: 1.74207 cumulative IPC: 1.68203 (Simulation time: 1 hr 12 min 11 sec) 
Heartbeat CPU 0 instructions: 810000000 cycles: 481094853 heartbeat IPC: 1.7276 cumulative IPC: 1.68258 (Simulation time: 1 hr 13 min 4 sec) 
Heartbeat CPU 0 instructions: 820000002 cycles: 486731857 heartbeat IPC: 1.77399 cumulative IPC: 1.68364 (Simulation time: 1 hr 13 min 54 sec) 
Heartbeat CPU 0 instructions: 830000000 cycles: 492545932 heartbeat IPC: 1.71996 cumulative IPC: 1.68407 (Simulation time: 1 hr 14 min 44 sec) 
Heartbeat CPU 0 instructions: 840000001 cycles: 498489370 heartbeat IPC: 1.68253 cumulative IPC: 1.68405 (Simulation time: 1 hr 15 min 34 sec) 
Heartbeat CPU 0 instructions: 850000004 cycles: 504641423 heartbeat IPC: 1.62547 cumulative IPC: 1.68333 (Simulation time: 1 hr 16 min 29 sec) 
Heartbeat CPU 0 instructions: 860000002 cycles: 510464663 heartbeat IPC: 1.71726 cumulative IPC: 1.68372 (Simulation time: 1 hr 17 min 21 sec) 
Heartbeat CPU 0 instructions: 870000000 cycles: 516664614 heartbeat IPC: 1.61292 cumulative IPC: 1.68287 (Simulation time: 1 hr 18 min 19 sec) 
Heartbeat CPU 0 instructions: 880000003 cycles: 522288619 heartbeat IPC: 1.77809 cumulative IPC: 1.6839 (Simulation time: 1 hr 19 min 11 sec) 
Heartbeat CPU 0 instructions: 890000001 cycles: 528233336 heartbeat IPC: 1.68217 cumulative IPC: 1.68388 (Simulation time: 1 hr 20 min 5 sec) 
Heartbeat CPU 0 instructions: 900000004 cycles: 534354328 heartbeat IPC: 1.63372 cumulative IPC: 1.6833 (Simulation time: 1 hr 21 min 4 sec) 
Heartbeat CPU 0 instructions: 910000002 cycles: 540321160 heartbeat IPC: 1.67593 cumulative IPC: 1.68322 (Simulation time: 1 hr 22 min 4 sec) 
Heartbeat CPU 0 instructions: 920000000 cycles: 545975102 heartbeat IPC: 1.76868 cumulative IPC: 1.68411 (Simulation time: 1 hr 23 min 0 sec) 
Heartbeat CPU 0 instructions: 930000002 cycles: 551765616 heartbeat IPC: 1.72696 cumulative IPC: 1.68456 (Simulation time: 1 hr 23 min 51 sec) 
Heartbeat CPU 0 instructions: 940000000 cycles: 557629109 heartbeat IPC: 1.70547 cumulative IPC: 1.68478 (Simulation time: 1 hr 24 min 43 sec) 
Heartbeat CPU 0 instructions: 950000001 cycles: 563837486 heartbeat IPC: 1.61073 cumulative IPC: 1.68396 (Simulation time: 1 hr 25 min 39 sec) 
Heartbeat CPU 0 instructions: 960000002 cycles: 569884478 heartbeat IPC: 1.65371 cumulative IPC: 1.68364 (Simulation time: 1 hr 26 min 34 sec) 
Heartbeat CPU 0 instructions: 970000004 cycles: 575785813 heartbeat IPC: 1.69453 cumulative IPC: 1.68375 (Simulation time: 1 hr 27 min 29 sec) 
Heartbeat CPU 0 instructions: 980000004 cycles: 581680534 heartbeat IPC: 1.69643 cumulative IPC: 1.68388 (Simulation time: 1 hr 28 min 26 sec) 
Heartbeat CPU 0 instructions: 990000003 cycles: 587339533 heartbeat IPC: 1.7671 cumulative IPC: 1.68468 (Simulation time: 1 hr 29 min 21 sec) 
Heartbeat CPU 0 instructions: 1000000000 cycles: 593070228 heartbeat IPC: 1.74499 cumulative IPC: 1.68527 (Simulation time: 1 hr 30 min 12 sec) 
Finished CPU 0 instructions: 1000000003 cycles: 593321917 cumulative IPC: 1.68543 (Simulation time: 1 hr 30 min 17 sec) 

ChampSim completed all CPUs

Region of Interest Statistics

CPU 0 cumulative IPC: 1.68543 instructions: 1000000003 cycles: 593321917
cpu0_DTLB TOTAL     ACCESS:  229190356  HIT:  228984562  MISS:     205794
cpu0_DTLB LOAD      ACCESS:  177725437  HIT:  177550775  MISS:     174662
cpu0_DTLB RFO       ACCESS:   51464919  HIT:   51433787  MISS:      31132
cpu0_DTLB PREFETCH  ACCESS:          0  HIT:          0  MISS:          0
cpu0_DTLB WRITEBACK ACCESS:          0  HIT:          0  MISS:          0
cpu0_DTLB TRANSLATION ACCESS:          0  HIT:          0  MISS:          0
cpu0_DTLB PREFETCH  REQUESTED:          0  ISSUED:          0  USEFUL:          0  USELESS:          0
cpu0_DTLB AVERAGE MISS LATENCY: 9.53659 cycles
cpu0_ITLB TOTAL     ACCESS:   67930388  HIT:   67872015  MISS:      58373
cpu0_ITLB LOAD      ACCESS:   67930388  HIT:   67872015  MISS:      58373
cpu0_ITLB RFO       ACCESS:          0  HIT:          0  MISS:          0
cpu0_ITLB PREFETCH  ACCESS:          0  HIT:          0  MISS:          0
cpu0_ITLB WRITEBACK ACCESS:          0  HIT:          0  MISS:          0
cpu0_ITLB TRANSLATION ACCESS:          0  HIT:          0  MISS:          0
cpu0_ITLB PREFETCH  REQUESTED:          0  ISSUED:          0  USEFUL:          0  USELESS:          0
cpu0_ITLB AVERAGE MISS LATENCY: 9.11401 cycles
cpu0_L1I TOTAL     ACCESS:   26593464  HIT:   25071225  MISS:    1522239
cpu0_L1I LOAD      ACCESS:   26593464  HIT:   25071225  MISS:    1522239
cpu0_L1I RFO       ACCESS:          0  HIT:          0  MISS:          0
cpu0_L1I PREFETCH  ACCESS:          0  HIT:          0  MISS:          0
cpu0_L1I WRITEBACK ACCESS:          0  HIT:          0  MISS:          0
cpu0_L1I TRANSLATION ACCESS:          0  HIT:          0  MISS:          0
cpu0_L1I PREFETCH  REQUESTED:          0  ISSUED:          0  USEFUL:          0  USELESS:          0
cpu0_L1I AVERAGE MISS LATENCY: 17.4955 cycles
cpu0_STLB TOTAL     ACCESS:     264167  HIT:     263678  MISS:        489
cpu0_STLB LOAD      ACCESS:     233035  HIT:     232603  MISS:        432
cpu0_STLB RFO       ACCESS:      31132  HIT:      31075  MISS:         57
cpu0_STLB PREFETCH  ACCESS:          0  HIT:          0  MISS:          0
cpu0_STLB WRITEBACK ACCESS:          0  HIT:          0  MISS:          0
cpu0_STLB TRANSLATION ACCESS:          0  HIT:          0  MISS:          0
cpu0_STLB PREFETCH  REQUESTED:          0  ISSUED:          0  USEFUL:          0  USELESS:          0
cpu0_STLB AVERAGE MISS LATENCY: 225.397 cycles
cpu0_L1D TOTAL     ACCESS:  476118060  HIT:  468456650  MISS:    7661410
cpu0_L1D LOAD      ACCESS:  197775454  HIT:  196510405  MISS:    1265049
cpu0_L1D RFO       ACCESS:   88121423  HIT:   84895337  MISS:    3226086
cpu0_L1D PREFETCH  ACCESS:  190220695  HIT:  187050752  MISS:    3169943
cpu0_L1D WRITEBACK ACCESS:          0  HIT:          0  MISS:          0
cpu0_L1D TRANSLATION ACCESS:        488  HIT:        156  MISS:        332
cpu0_L1D PREFETCH  REQUESTED:  197977192  ISSUED:  192426861  USEFUL:    3033389  USELESS:     269677
cpu0_L1D AVERAGE MISS LATENCY: 17.2819 cycles
cpu0_L2C TOTAL     ACCESS:   16766946  HIT:   15375604  MISS:    1391342
cpu0_L2C LOAD      ACCESS:    2668190  HIT:    2269211  MISS:     398979
cpu0_L2C RFO       ACCESS:    3211358  HIT:    2589800  MISS:     621558
cpu0_L2C PREFETCH  ACCESS:    7026691  HIT:    6657884  MISS:     368807
cpu0_L2C WRITEBACK ACCESS:    3860375  HIT:    3858533  MISS:       1842
cpu0_L2C TRANSLATION ACCESS:        332  HIT:        176  MISS:        156
cpu0_L2C PREFETCH  REQUESTED:    3771273  ISSUED:    3729479  USEFUL:      54447  USELESS:      14375
cpu0_L2C AVERAGE MISS LATENCY: 32.7952 cycles
LLC TOTAL     ACCESS:    2103601  HIT:    2073317  MISS:      30284
LLC LOAD      ACCESS:     398946  HIT:     391049  MISS:       7897
LLC RFO       ACCESS:     621554  HIT:     617908  MISS:       3646
LLC PREFETCH  ACCESS:     369235  HIT:     350610  MISS:      18625
LLC WRITEBACK ACCESS:     713710  HIT:     713598  MISS:        112
LLC TRANSLATION ACCESS:        156  HIT:        152  MISS:          4
LLC PREFETCH  REQUESTED:          0  ISSUED:          0  USEFUL:          0  USELESS:          0
LLC AVERAGE MISS LATENCY: 268.197 cycles

DRAM Statistics
 CHANNEL 0
 RQ ROW_BUFFER_HIT:       8824  ROW_BUFFER_MISS:      21348
 DBUS AVG_CONGESTED_CYCLE:    3.65488
 WQ ROW_BUFFER_HIT:         56  ROW_BUFFER_MISS:        497  FULL:          0


CPU 0 Branch Prediction Accuracy: 92.4109% MPKI: 8.46361 Average ROB Occupancy at Mispredict: 86.2004
Branch type MPKI
BRANCH_DIRECT_JUMP: 0.000141
BRANCH_INDIRECT: 0.00483
BRANCH_CONDITIONAL: 8.45841
BRANCH_DIRECT_CALL: 0.000139
BRANCH_INDIRECT_CALL: 0
BRANCH_RETURN: 9.1e-05

