
*** ChampSim Multicore Out-of-Order Simulator ***

Warmup Instructions: 200000000
Simulation Instructions: 1000000000
Number of CPUs: 1
Off-chip DRAM Size: 4 GiB Channels: 1 Width: 64-bit Data Rate: 3200 MT/s

VirtualMemory physical capacity: 8588881920 num_ppages: 2096895
VirtualMemory page size: 4096 log2_page_size: 12

CPU 0 runs tracer/pin/traces/sssp-twitter-427B.champsim.xz
Basic BTB sets: 1024 ways: 8 indirect buffer size: 4096 RAS size: 64
cpu0_L1D next line prefetcher
cpu0_L2C IP-based stride prefetcher
WARNING: The extended signature CACHE::prefetch_line(ip, base_addr, pf_addr, fill_this_level, prefetch_metadata) is deprecated.
WARNING: Use CACHE::prefetch_line(pf_addr, fill_this_level, prefetch_metadata) instead.
Heartbeat CPU 0 instructions: 10000003 cycles: 3688315 heartbeat IPC: 2.71127 cumulative IPC: 2.71127 (Simulation time: 0 hr 0 min 33 sec) 
Heartbeat CPU 0 instructions: 20000000 cycles: 7372152 heartbeat IPC: 2.71456 cumulative IPC: 2.71291 (Simulation time: 0 hr 1 min 5 sec) 
Heartbeat CPU 0 instructions: 30000003 cycles: 11077774 heartbeat IPC: 2.6986 cumulative IPC: 2.70813 (Simulation time: 0 hr 1 min 38 sec) 
Heartbeat CPU 0 instructions: 40000004 cycles: 14723098 heartbeat IPC: 2.74324 cumulative IPC: 2.71682 (Simulation time: 0 hr 2 min 10 sec) 
Heartbeat CPU 0 instructions: 50000004 cycles: 18403704 heartbeat IPC: 2.71694 cumulative IPC: 2.71684 (Simulation time: 0 hr 2 min 42 sec) 
Heartbeat CPU 0 instructions: 60000003 cycles: 22034501 heartbeat IPC: 2.75422 cumulative IPC: 2.723 (Simulation time: 0 hr 3 min 14 sec) 
Heartbeat CPU 0 instructions: 70000000 cycles: 25745075 heartbeat IPC: 2.695 cumulative IPC: 2.71897 (Simulation time: 0 hr 3 min 46 sec) 
Heartbeat CPU 0 instructions: 80000004 cycles: 29440071 heartbeat IPC: 2.70636 cumulative IPC: 2.71738 (Simulation time: 0 hr 4 min 18 sec) 
Heartbeat CPU 0 instructions: 90000001 cycles: 32826390 heartbeat IPC: 2.95306 cumulative IPC: 2.7417 (Simulation time: 0 hr 4 min 47 sec) 
Heartbeat CPU 0 instructions: 100000002 cycles: 36146898 heartbeat IPC: 3.01159 cumulative IPC: 2.76649 (Simulation time: 0 hr 5 min 16 sec) 
Heartbeat CPU 0 instructions: 110000000 cycles: 39757154 heartbeat IPC: 2.76989 cumulative IPC: 2.7668 (Simulation time: 0 hr 5 min 48 sec) 
Heartbeat CPU 0 instructions: 120000004 cycles: 43446884 heartbeat IPC: 2.71023 cumulative IPC: 2.76199 (Simulation time: 0 hr 6 min 20 sec) 
Heartbeat CPU 0 instructions: 130000004 cycles: 47122888 heartbeat IPC: 2.72035 cumulative IPC: 2.75874 (Simulation time: 0 hr 6 min 52 sec) 
Heartbeat CPU 0 instructions: 140000001 cycles: 50781133 heartbeat IPC: 2.73355 cumulative IPC: 2.75693 (Simulation time: 0 hr 7 min 25 sec) 
Heartbeat CPU 0 instructions: 150000001 cycles: 54469859 heartbeat IPC: 2.71096 cumulative IPC: 2.75382 (Simulation time: 0 hr 7 min 57 sec) 
Heartbeat CPU 0 instructions: 160000000 cycles: 58150781 heartbeat IPC: 2.71671 cumulative IPC: 2.75147 (Simulation time: 0 hr 8 min 30 sec) 
Heartbeat CPU 0 instructions: 170000002 cycles: 61824840 heartbeat IPC: 2.72179 cumulative IPC: 2.7497 (Simulation time: 0 hr 9 min 2 sec) 
Heartbeat CPU 0 instructions: 180000004 cycles: 65498876 heartbeat IPC: 2.7218 cumulative IPC: 2.74814 (Simulation time: 0 hr 9 min 34 sec) 
Heartbeat CPU 0 instructions: 190000002 cycles: 69179704 heartbeat IPC: 2.71678 cumulative IPC: 2.74647 (Simulation time: 0 hr 10 min 7 sec) 
Heartbeat CPU 0 instructions: 200000003 cycles: 72861851 heartbeat IPC: 2.71581 cumulative IPC: 2.74492 (Simulation time: 0 hr 10 min 39 sec) 

Warmup complete CPU 0 instructions: 200000003 cycles: 72861851 (Simulation time: 0 hr 10 min 39 sec) 

Heartbeat CPU 0 instructions: 210000002 cycles: 160231826 heartbeat IPC: 0.114456 cumulative IPC: 0.114456 (Simulation time: 0 hr 14 min 57 sec) 
Heartbeat CPU 0 instructions: 220000004 cycles: 247483369 heartbeat IPC: 0.114611 cumulative IPC: 0.114533 (Simulation time: 0 hr 19 min 17 sec) 
Heartbeat CPU 0 instructions: 230000004 cycles: 342298251 heartbeat IPC: 0.105469 cumulative IPC: 0.111344 (Simulation time: 0 hr 23 min 53 sec) 
Heartbeat CPU 0 instructions: 240000003 cycles: 432953055 heartbeat IPC: 0.110309 cumulative IPC: 0.111083 (Simulation time: 0 hr 28 min 17 sec) 
Heartbeat CPU 0 instructions: 250000000 cycles: 522441002 heartbeat IPC: 0.111747 cumulative IPC: 0.111215 (Simulation time: 0 hr 32 min 38 sec) 
Heartbeat CPU 0 instructions: 260000001 cycles: 608692537 heartbeat IPC: 0.11594 cumulative IPC: 0.111976 (Simulation time: 0 hr 36 min 56 sec) 
Heartbeat CPU 0 instructions: 270000001 cycles: 704804502 heartbeat IPC: 0.104045 cumulative IPC: 0.11077 (Simulation time: 0 hr 41 min 14 sec) 
Heartbeat CPU 0 instructions: 280000000 cycles: 783233756 heartbeat IPC: 0.127503 cumulative IPC: 0.112617 (Simulation time: 0 hr 45 min 8 sec) 
Heartbeat CPU 0 instructions: 290000003 cycles: 883049717 heartbeat IPC: 0.100184 cumulative IPC: 0.111085 (Simulation time: 0 hr 50 min 4 sec) 
Heartbeat CPU 0 instructions: 300000000 cycles: 973706308 heartbeat IPC: 0.110306 cumulative IPC: 0.111007 (Simulation time: 0 hr 54 min 28 sec) 
Heartbeat CPU 0 instructions: 310000000 cycles: 1064564611 heartbeat IPC: 0.110061 cumulative IPC: 0.11092 (Simulation time: 0 hr 58 min 35 sec) 
Heartbeat CPU 0 instructions: 320000003 cycles: 1153746276 heartbeat IPC: 0.112131 cumulative IPC: 0.11102 (Simulation time: 1 hr 2 min 57 sec) 
Heartbeat CPU 0 instructions: 330000000 cycles: 1240216315 heartbeat IPC: 0.115647 cumulative IPC: 0.111363 (Simulation time: 1 hr 7 min 18 sec) 
Heartbeat CPU 0 instructions: 340000001 cycles: 1333905786 heartbeat IPC: 0.106736 cumulative IPC: 0.111019 (Simulation time: 1 hr 11 min 43 sec) 
Heartbeat CPU 0 instructions: 350000003 cycles: 1424580688 heartbeat IPC: 0.110284 cumulative IPC: 0.11097 (Simulation time: 1 hr 16 min 10 sec) 
Heartbeat CPU 0 instructions: 360000001 cycles: 1517022838 heartbeat IPC: 0.108176 cumulative IPC: 0.110791 (Simulation time: 1 hr 20 min 34 sec) 
Heartbeat CPU 0 instructions: 370000004 cycles: 1609034563 heartbeat IPC: 0.108682 cumulative IPC: 0.110665 (Simulation time: 1 hr 24 min 58 sec) 
Heartbeat CPU 0 instructions: 380000004 cycles: 1705868537 heartbeat IPC: 0.10327 cumulative IPC: 0.110226 (Simulation time: 1 hr 29 min 12 sec) 
Heartbeat CPU 0 instructions: 390000003 cycles: 1795124992 heartbeat IPC: 0.112037 cumulative IPC: 0.11032 (Simulation time: 1 hr 33 min 32 sec) 
Heartbeat CPU 0 instructions: 400000004 cycles: 1890860863 heartbeat IPC: 0.104454 cumulative IPC: 0.110011 (Simulation time: 1 hr 36 min 55 sec) 
Heartbeat CPU 0 instructions: 410000004 cycles: 1982321204 heartbeat IPC: 0.109337 cumulative IPC: 0.109979 (Simulation time: 1 hr 40 min 27 sec) 
Heartbeat CPU 0 instructions: 420000000 cycles: 2070686794 heartbeat IPC: 0.113166 cumulative IPC: 0.11012 (Simulation time: 1 hr 44 min 45 sec) 
Heartbeat CPU 0 instructions: 430000003 cycles: 2159642499 heartbeat IPC: 0.112416 cumulative IPC: 0.110218 (Simulation time: 1 hr 49 min 7 sec) 
Heartbeat CPU 0 instructions: 440000001 cycles: 2256857681 heartbeat IPC: 0.102865 cumulative IPC: 0.10989 (Simulation time: 1 hr 53 min 26 sec) 
Heartbeat CPU 0 instructions: 450000001 cycles: 2351524047 heartbeat IPC: 0.105634 cumulative IPC: 0.109713 (Simulation time: 1 hr 57 min 52 sec) 
Heartbeat CPU 0 instructions: 460000001 cycles: 2440833454 heartbeat IPC: 0.11197 cumulative IPC: 0.109799 (Simulation time: 2 hr 2 min 17 sec) 
Heartbeat CPU 0 instructions: 470000004 cycles: 2531434327 heartbeat IPC: 0.110374 cumulative IPC: 0.10982 (Simulation time: 2 hr 6 min 42 sec) 
Heartbeat CPU 0 instructions: 480000001 cycles: 2620585832 heartbeat IPC: 0.112169 cumulative IPC: 0.109902 (Simulation time: 2 hr 11 min 5 sec) 
Heartbeat CPU 0 instructions: 490000003 cycles: 2710356187 heartbeat IPC: 0.111395 cumulative IPC: 0.109953 (Simulation time: 2 hr 15 min 29 sec) 
Heartbeat CPU 0 instructions: 500000001 cycles: 2800954298 heartbeat IPC: 0.110378 cumulative IPC: 0.109967 (Simulation time: 2 hr 19 min 54 sec) 
Heartbeat CPU 0 instructions: 510000001 cycles: 2891480015 heartbeat IPC: 0.110466 cumulative IPC: 0.109983 (Simulation time: 2 hr 23 min 34 sec) 
Heartbeat CPU 0 instructions: 520000000 cycles: 3005568275 heartbeat IPC: 0.0876514 cumulative IPC: 0.109114 (Simulation time: 2 hr 26 min 56 sec) 
Heartbeat CPU 0 instructions: 530000004 cycles: 3099201080 heartbeat IPC: 0.1068 cumulative IPC: 0.109043 (Simulation time: 2 hr 31 min 22 sec) 
Heartbeat CPU 0 instructions: 540000001 cycles: 3189347942 heartbeat IPC: 0.11093 cumulative IPC: 0.109097 (Simulation time: 2 hr 35 min 48 sec) 
Heartbeat CPU 0 instructions: 550000002 cycles: 3280932851 heartbeat IPC: 0.109188 cumulative IPC: 0.1091 (Simulation time: 2 hr 40 min 13 sec) 
Heartbeat CPU 0 instructions: 560000001 cycles: 3366792039 heartbeat IPC: 0.11647 cumulative IPC: 0.109292 (Simulation time: 2 hr 43 min 24 sec) 
Heartbeat CPU 0 instructions: 570000000 cycles: 3467368670 heartbeat IPC: 0.0994267 cumulative IPC: 0.109 (Simulation time: 2 hr 46 min 31 sec) 
Heartbeat CPU 0 instructions: 580000002 cycles: 3561055674 heartbeat IPC: 0.106738 cumulative IPC: 0.108939 (Simulation time: 2 hr 50 min 4 sec) 
Heartbeat CPU 0 instructions: 590000000 cycles: 3651925650 heartbeat IPC: 0.110047 cumulative IPC: 0.108967 (Simulation time: 2 hr 54 min 30 sec) 
Heartbeat CPU 0 instructions: 600000002 cycles: 3748348270 heartbeat IPC: 0.10371 cumulative IPC: 0.108829 (Simulation time: 2 hr 58 min 47 sec) 
Heartbeat CPU 0 instructions: 610000002 cycles: 3834885727 heartbeat IPC: 0.115557 cumulative IPC: 0.108984 (Simulation time: 3 hr 2 min 59 sec) 
Heartbeat CPU 0 instructions: 620000000 cycles: 3921944220 heartbeat IPC: 0.114865 cumulative IPC: 0.109117 (Simulation time: 3 hr 7 min 22 sec) 
Heartbeat CPU 0 instructions: 630000004 cycles: 4010417409 heartbeat IPC: 0.113029 cumulative IPC: 0.109205 (Simulation time: 3 hr 11 min 46 sec) 
Heartbeat CPU 0 instructions: 640000003 cycles: 4103846986 heartbeat IPC: 0.107032 cumulative IPC: 0.109154 (Simulation time: 3 hr 16 min 10 sec) 
Heartbeat CPU 0 instructions: 650000000 cycles: 4200619395 heartbeat IPC: 0.103335 cumulative IPC: 0.109018 (Simulation time: 3 hr 20 min 39 sec) 
Heartbeat CPU 0 instructions: 660000000 cycles: 4302138571 heartbeat IPC: 0.0985036 cumulative IPC: 0.108766 (Simulation time: 3 hr 24 min 1 sec) 
Heartbeat CPU 0 instructions: 670000002 cycles: 4411840557 heartbeat IPC: 0.0911561 cumulative IPC: 0.10832 (Simulation time: 3 hr 27 min 46 sec) 
Heartbeat CPU 0 instructions: 680000001 cycles: 4529790337 heartbeat IPC: 0.0847818 cumulative IPC: 0.107697 (Simulation time: 3 hr 32 min 7 sec) 
Heartbeat CPU 0 instructions: 690000000 cycles: 4620593568 heartbeat IPC: 0.110128 cumulative IPC: 0.107746 (Simulation time: 3 hr 36 min 30 sec) 
Heartbeat CPU 0 instructions: 700000000 cycles: 4704299325 heartbeat IPC: 0.119466 cumulative IPC: 0.107958 (Simulation time: 3 hr 40 min 43 sec) 
Heartbeat CPU 0 instructions: 710000003 cycles: 4790673498 heartbeat IPC: 0.115775 cumulative IPC: 0.108101 (Simulation time: 3 hr 44 min 55 sec) 
Heartbeat CPU 0 instructions: 720000001 cycles: 4881334779 heartbeat IPC: 0.110301 cumulative IPC: 0.108142 (Simulation time: 3 hr 49 min 23 sec) 
Heartbeat CPU 0 instructions: 730000001 cycles: 4972344413 heartbeat IPC: 0.109878 cumulative IPC: 0.108175 (Simulation time: 3 hr 53 min 43 sec) 
Heartbeat CPU 0 instructions: 740000000 cycles: 5050250659 heartbeat IPC: 0.128359 cumulative IPC: 0.108491 (Simulation time: 3 hr 56 min 28 sec) 
Heartbeat CPU 0 instructions: 750000000 cycles: 5139396858 heartbeat IPC: 0.112175 cumulative IPC: 0.108555 (Simulation time: 3 hr 59 min 7 sec) 
Heartbeat CPU 0 instructions: 760000002 cycles: 5237249616 heartbeat IPC: 0.102194 cumulative IPC: 0.108435 (Simulation time: 4 hr 3 min 0 sec) 
Heartbeat CPU 0 instructions: 770000003 cycles: 5328737632 heartbeat IPC: 0.109304 cumulative IPC: 0.10845 (Simulation time: 4 hr 7 min 28 sec) 
Heartbeat CPU 0 instructions: 780000001 cycles: 5421188414 heartbeat IPC: 0.108166 cumulative IPC: 0.108445 (Simulation time: 4 hr 11 min 55 sec) 
Heartbeat CPU 0 instructions: 790000003 cycles: 5509872624 heartbeat IPC: 0.11276 cumulative IPC: 0.108516 (Simulation time: 4 hr 16 min 17 sec) 
Heartbeat CPU 0 instructions: 800000002 cycles: 5610736099 heartbeat IPC: 0.0991439 cumulative IPC: 0.108345 (Simulation time: 4 hr 20 min 57 sec) 
Heartbeat CPU 0 instructions: 810000002 cycles: 5708075787 heartbeat IPC: 0.102733 cumulative IPC: 0.108248 (Simulation time: 4 hr 25 min 5 sec) 
Heartbeat CPU 0 instructions: 820000003 cycles: 5804064915 heartbeat IPC: 0.104178 cumulative IPC: 0.10818 (Simulation time: 4 hr 28 min 3 sec) 
Heartbeat CPU 0 instructions: 830000003 cycles: 5886045560 heartbeat IPC: 0.12198 cumulative IPC: 0.108374 (Simulation time: 4 hr 31 min 41 sec) 
Heartbeat CPU 0 instructions: 840000000 cycles: 5947274651 heartbeat IPC: 0.163321 cumulative IPC: 0.108947 (Simulation time: 4 hr 35 min 9 sec) 
Heartbeat CPU 0 instructions: 850000000 cycles: 6032859559 heartbeat IPC: 0.116843 cumulative IPC: 0.10906 (Simulation time: 4 hr 39 min 5 sec) 
Heartbeat CPU 0 instructions: 860000000 cycles: 6133997754 heartbeat IPC: 0.0988746 cumulative IPC: 0.10889 (Simulation time: 4 hr 43 min 31 sec) 
Heartbeat CPU 0 instructions: 870000002 cycles: 6222533456 heartbeat IPC: 0.112949 cumulative IPC: 0.108949 (Simulation time: 4 hr 47 min 53 sec) 
Heartbeat CPU 0 instructions: 880000000 cycles: 6316589585 heartbeat IPC: 0.106319 cumulative IPC: 0.108909 (Simulation time: 4 hr 52 min 9 sec) 
Heartbeat CPU 0 instructions: 890000002 cycles: 6409327192 heartbeat IPC: 0.107831 cumulative IPC: 0.108894 (Simulation time: 4 hr 56 min 13 sec) 
Heartbeat CPU 0 instructions: 900000001 cycles: 6496503171 heartbeat IPC: 0.11471 cumulative IPC: 0.108972 (Simulation time: 4 hr 59 min 44 sec) 
Heartbeat CPU 0 instructions: 910000000 cycles: 6587963174 heartbeat IPC: 0.109337 cumulative IPC: 0.108978 (Simulation time: 5 hr 2 min 21 sec) 
Heartbeat CPU 0 instructions: 920000000 cycles: 6680906566 heartbeat IPC: 0.107592 cumulative IPC: 0.108958 (Simulation time: 5 hr 5 min 29 sec) 
Heartbeat CPU 0 instructions: 930000000 cycles: 6771501068 heartbeat IPC: 0.110382 cumulative IPC: 0.108977 (Simulation time: 5 hr 9 min 55 sec) 
Heartbeat CPU 0 instructions: 940000001 cycles: 6862898634 heartbeat IPC: 0.109412 cumulative IPC: 0.108983 (Simulation time: 5 hr 14 min 16 sec) 
Heartbeat CPU 0 instructions: 950000000 cycles: 6956235995 heartbeat IPC: 0.107138 cumulative IPC: 0.108958 (Simulation time: 5 hr 18 min 50 sec) 
Heartbeat CPU 0 instructions: 960000001 cycles: 7046748832 heartbeat IPC: 0.110482 cumulative IPC: 0.108978 (Simulation time: 5 hr 23 min 20 sec) 
Heartbeat CPU 0 instructions: 970000001 cycles: 7137777132 heartbeat IPC: 0.109856 cumulative IPC: 0.108989 (Simulation time: 5 hr 27 min 43 sec) 
Heartbeat CPU 0 instructions: 980000003 cycles: 7229006483 heartbeat IPC: 0.109614 cumulative IPC: 0.108997 (Simulation time: 5 hr 32 min 7 sec) 
Heartbeat CPU 0 instructions: 990000000 cycles: 7322644078 heartbeat IPC: 0.106795 cumulative IPC: 0.108969 (Simulation time: 5 hr 36 min 28 sec) 
Heartbeat CPU 0 instructions: 1000000003 cycles: 7427897875 heartbeat IPC: 0.0950085 cumulative IPC: 0.108769 (Simulation time: 5 hr 40 min 50 sec) 
Heartbeat CPU 0 instructions: 1010000002 cycles: 7520242322 heartbeat IPC: 0.10829 cumulative IPC: 0.108763 (Simulation time: 5 hr 45 min 16 sec) 
Heartbeat CPU 0 instructions: 1020000001 cycles: 7612246584 heartbeat IPC: 0.108691 cumulative IPC: 0.108762 (Simulation time: 5 hr 49 min 41 sec) 
Heartbeat CPU 0 instructions: 1030000004 cycles: 7712156327 heartbeat IPC: 0.10009 cumulative IPC: 0.108649 (Simulation time: 5 hr 54 min 5 sec) 
Heartbeat CPU 0 instructions: 1040000000 cycles: 7813916241 heartbeat IPC: 0.0982705 cumulative IPC: 0.108512 (Simulation time: 5 hr 57 min 28 sec) 
Heartbeat CPU 0 instructions: 1050000002 cycles: 7911207739 heartbeat IPC: 0.102784 cumulative IPC: 0.108441 (Simulation time: 6 hr 1 min 52 sec) 
Heartbeat CPU 0 instructions: 1060000000 cycles: 8003789082 heartbeat IPC: 0.108013 cumulative IPC: 0.108436 (Simulation time: 6 hr 6 min 20 sec) 
Heartbeat CPU 0 instructions: 1070000000 cycles: 8106409610 heartbeat IPC: 0.0974464 cumulative IPC: 0.108296 (Simulation time: 6 hr 10 min 38 sec) 
Heartbeat CPU 0 instructions: 1080000002 cycles: 8197086848 heartbeat IPC: 0.110281 cumulative IPC: 0.108318 (Simulation time: 6 hr 15 min 5 sec) 
Heartbeat CPU 0 instructions: 1090000000 cycles: 8291203370 heartbeat IPC: 0.106251 cumulative IPC: 0.108294 (Simulation time: 6 hr 19 min 18 sec) 
Heartbeat CPU 0 instructions: 1100000003 cycles: 8383750798 heartbeat IPC: 0.108053 cumulative IPC: 0.108292 (Simulation time: 6 hr 23 min 43 sec) 
Heartbeat CPU 0 instructions: 1110000002 cycles: 8471401674 heartbeat IPC: 0.114089 cumulative IPC: 0.108352 (Simulation time: 6 hr 28 min 7 sec) 
Heartbeat CPU 0 instructions: 1120000002 cycles: 8564421902 heartbeat IPC: 0.107503 cumulative IPC: 0.108343 (Simulation time: 6 hr 32 min 30 sec) 
Heartbeat CPU 0 instructions: 1130000003 cycles: 8656481926 heartbeat IPC: 0.108625 cumulative IPC: 0.108346 (Simulation time: 6 hr 36 min 56 sec) 
Heartbeat CPU 0 instructions: 1140000003 cycles: 8748548364 heartbeat IPC: 0.108617 cumulative IPC: 0.108349 (Simulation time: 6 hr 41 min 25 sec) 
Heartbeat CPU 0 instructions: 1150000000 cycles: 8840691384 heartbeat IPC: 0.108527 cumulative IPC: 0.108351 (Simulation time: 6 hr 45 min 50 sec) 
Heartbeat CPU 0 instructions: 1160000004 cycles: 8942126052 heartbeat IPC: 0.0985857 cumulative IPC: 0.108239 (Simulation time: 6 hr 49 min 40 sec) 
Heartbeat CPU 0 instructions: 1170000004 cycles: 9032471494 heartbeat IPC: 0.110686 cumulative IPC: 0.108264 (Simulation time: 6 hr 54 min 3 sec) 
Heartbeat CPU 0 instructions: 1180000004 cycles: 9126634854 heartbeat IPC: 0.106198 cumulative IPC: 0.108242 (Simulation time: 6 hr 58 min 15 sec) 
Heartbeat CPU 0 instructions: 1190000000 cycles: 9220083013 heartbeat IPC: 0.107011 cumulative IPC: 0.10823 (Simulation time: 7 hr 1 min 23 sec) 
*** Reached end of trace: tracer/pin/traces/sssp-twitter-427B.champsim.xz
Heartbeat CPU 0 instructions: 1200000001 cycles: 9318021548 heartbeat IPC: 0.102105 cumulative IPC: 0.108165 (Simulation time: 7 hr 5 min 47 sec) 
Finished CPU 0 instructions: 1000000001 cycles: 9245159698 cumulative IPC: 0.108165 (Simulation time: 7 hr 5 min 47 sec) 

ChampSim completed all CPUs

Region of Interest Statistics

CPU 0 cumulative IPC: 0.108165 instructions: 1000000001 cycles: 9245159698
cpu0_DTLB TOTAL     ACCESS:  340372336  HIT:  290022166  MISS:   50350170
cpu0_DTLB LOAD      ACCESS:  294949333  HIT:  246988762  MISS:   47960571
cpu0_DTLB RFO       ACCESS:   45423003  HIT:   43033404  MISS:    2389599
cpu0_DTLB PREFETCH  ACCESS:          0  HIT:          0  MISS:          0
cpu0_DTLB WRITEBACK ACCESS:          0  HIT:          0  MISS:          0
cpu0_DTLB TRANSLATION ACCESS:          0  HIT:          0  MISS:          0
cpu0_DTLB PREFETCH  REQUESTED:          0  ISSUED:          0  USEFUL:          0  USELESS:          0
cpu0_DTLB AVERAGE MISS LATENCY: 76.3267 cycles
cpu0_ITLB TOTAL     ACCESS:   37211259  HIT:   37211258  MISS:          1
cpu0_ITLB LOAD      ACCESS:   37211259  HIT:   37211258  MISS:          1
cpu0_ITLB RFO       ACCESS:          0  HIT:          0  MISS:          0
cpu0_ITLB PREFETCH  ACCESS:          0  HIT:          0  MISS:          0
cpu0_ITLB WRITEBACK ACCESS:          0  HIT:          0  MISS:          0
cpu0_ITLB TRANSLATION ACCESS:          0  HIT:          0  MISS:          0
cpu0_ITLB PREFETCH  REQUESTED:          0  ISSUED:          0  USEFUL:          0  USELESS:          0
cpu0_ITLB AVERAGE MISS LATENCY: 557 cycles
cpu0_L1I TOTAL     ACCESS:        744  HIT:        705  MISS:         39
cpu0_L1I LOAD      ACCESS:        744  HIT:        705  MISS:         39
cpu0_L1I RFO       ACCESS:          0  HIT:          0  MISS:          0
cpu0_L1I PREFETCH  ACCESS:          0  HIT:          0  MISS:          0
cpu0_L1I WRITEBACK ACCESS:          0  HIT:          0  MISS:          0
cpu0_L1I TRANSLATION ACCESS:          0  HIT:          0  MISS:          0
cpu0_L1I PREFETCH  REQUESTED:          0  ISSUED:          0  USEFUL:          0  USELESS:          0
cpu0_L1I AVERAGE MISS LATENCY: 395.282 cycles
cpu0_STLB TOTAL     ACCESS:   50350171  HIT:    4471973  MISS:   45878198
cpu0_STLB LOAD      ACCESS:   47960572  HIT:    2728846  MISS:   45231726
cpu0_STLB RFO       ACCESS:    2389599  HIT:    1743127  MISS:     646472
cpu0_STLB PREFETCH  ACCESS:          0  HIT:          0  MISS:          0
cpu0_STLB WRITEBACK ACCESS:          0  HIT:          0  MISS:          0
cpu0_STLB TRANSLATION ACCESS:          0  HIT:          0  MISS:          0
cpu0_STLB PREFETCH  REQUESTED:          0  ISSUED:          0  USEFUL:          0  USELESS:          0
cpu0_STLB AVERAGE MISS LATENCY: 73.8824 cycles
cpu0_L1D TOTAL     ACCESS:  543261937  HIT:  436378909  MISS:  106883028
cpu0_L1D LOAD      ACCESS:  290470420  HIT:  228553897  MISS:   61916523
cpu0_L1D RFO       ACCESS:   58936331  HIT:   56532109  MISS:    2404222
cpu0_L1D PREFETCH  ACCESS:  159260906  HIT:  118117256  MISS:   41143650
cpu0_L1D WRITEBACK ACCESS:          0  HIT:          0  MISS:          0
cpu0_L1D TRANSLATION ACCESS:   34594280  HIT:   33175647  MISS:    1418633
cpu0_L1D PREFETCH  REQUESTED:  298518825  ISSUED:  174686627  USEFUL:    8350949  USELESS:   36454312
cpu0_L1D AVERAGE MISS LATENCY: 554.735 cycles
cpu0_L2C TOTAL     ACCESS:  116021334  HIT:   14045281  MISS:  101976053
cpu0_L2C LOAD      ACCESS:   58254603  HIT:    2223213  MISS:   56031390
cpu0_L2C RFO       ACCESS:    2404029  HIT:    1314072  MISS:    1089957
cpu0_L2C PREFETCH  ACCESS:   47302639  HIT:    2770454  MISS:   44532185
cpu0_L2C WRITEBACK ACCESS:    6641430  HIT:    6611352  MISS:      30078
cpu0_L2C TRANSLATION ACCESS:    1418633  HIT:    1126190  MISS:     292443
cpu0_L2C PREFETCH  REQUESTED:    4203664  ISSUED:    3476297  USEFUL:     441254  USELESS:     976258
cpu0_L2C AVERAGE MISS LATENCY: 601.869 cycles
LLC TOTAL     ACCESS:  107051870  HIT:   16483281  MISS:   90568589
LLC LOAD      ACCESS:   56031370  HIT:    7046677  MISS:   48984693
LLC RFO       ACCESS:    1089927  HIT:     610772  MISS:     479155
LLC PREFETCH  ACCESS:   45049177  HIT:    4025311  MISS:   41023866
LLC WRITEBACK ACCESS:    4588953  HIT:    4580583  MISS:       8370
LLC TRANSLATION ACCESS:     292443  HIT:     219938  MISS:      72505
LLC PREFETCH  REQUESTED:          0  ISSUED:          0  USEFUL:          0  USELESS:          0
LLC AVERAGE MISS LATENCY: 651.862 cycles

DRAM Statistics
 CHANNEL 0
 RQ ROW_BUFFER_HIT:    5689422  ROW_BUFFER_MISS:   84868359
 DBUS AVG_CONGESTED_CYCLE:    3.95794
 WQ ROW_BUFFER_HIT:       4304  ROW_BUFFER_MISS:    3695241  FULL:          0


CPU 0 Branch Prediction Accuracy: 95.663% MPKI: 5.3458 Average ROB Occupancy at Mispredict: 43.2808
Branch type MPKI
BRANCH_DIRECT_JUMP: 8e-06
BRANCH_INDIRECT: 0
BRANCH_CONDITIONAL: 5.34578
BRANCH_DIRECT_CALL: 5e-06
BRANCH_INDIRECT_CALL: 0
BRANCH_RETURN: 5e-06

