
*** ChampSim Multicore Out-of-Order Simulator ***

Warmup Instructions: 200000000
Simulation Instructions: 1000000000
Number of CPUs: 1
Off-chip DRAM Size: 4 GiB Channels: 1 Width: 64-bit Data Rate: 3200 MT/s

VirtualMemory physical capacity: 8588881920 num_ppages: 2096895
VirtualMemory page size: 4096 log2_page_size: 12

CPU 0 runs tracer/pin/traces/xs-64hashxl-2.champsim.xz
Basic BTB sets: 1024 ways: 8 indirect buffer size: 4096 RAS size: 64
cpu0_L1D next line prefetcher
cpu0_L2C IP-based stride prefetcher
WARNING: The extended signature CACHE::prefetch_line(ip, base_addr, pf_addr, fill_this_level, prefetch_metadata) is deprecated.
WARNING: Use CACHE::prefetch_line(pf_addr, fill_this_level, prefetch_metadata) instead.
Heartbeat CPU 0 instructions: 10000001 cycles: 2500077 heartbeat IPC: 3.99988 cumulative IPC: 3.99988 (Simulation time: 0 hr 0 min 29 sec) 
Heartbeat CPU 0 instructions: 20000001 cycles: 5000077 heartbeat IPC: 4 cumulative IPC: 3.99994 (Simulation time: 0 hr 1 min 1 sec) 
Heartbeat CPU 0 instructions: 30000001 cycles: 7500077 heartbeat IPC: 4 cumulative IPC: 3.99996 (Simulation time: 0 hr 1 min 32 sec) 
Heartbeat CPU 0 instructions: 40000001 cycles: 10000077 heartbeat IPC: 4 cumulative IPC: 3.99997 (Simulation time: 0 hr 1 min 57 sec) 
Heartbeat CPU 0 instructions: 50000001 cycles: 12500077 heartbeat IPC: 4 cumulative IPC: 3.99998 (Simulation time: 0 hr 2 min 26 sec) 
Heartbeat CPU 0 instructions: 60000001 cycles: 15000077 heartbeat IPC: 4 cumulative IPC: 3.99998 (Simulation time: 0 hr 2 min 54 sec) 
Heartbeat CPU 0 instructions: 70000001 cycles: 17500077 heartbeat IPC: 4 cumulative IPC: 3.99998 (Simulation time: 0 hr 3 min 20 sec) 
Heartbeat CPU 0 instructions: 80000001 cycles: 20000077 heartbeat IPC: 4 cumulative IPC: 3.99998 (Simulation time: 0 hr 3 min 48 sec) 
Heartbeat CPU 0 instructions: 90000001 cycles: 22500077 heartbeat IPC: 4 cumulative IPC: 3.99999 (Simulation time: 0 hr 4 min 16 sec) 
Heartbeat CPU 0 instructions: 100000001 cycles: 25000077 heartbeat IPC: 4 cumulative IPC: 3.99999 (Simulation time: 0 hr 4 min 41 sec) 
Heartbeat CPU 0 instructions: 110000001 cycles: 27500077 heartbeat IPC: 4 cumulative IPC: 3.99999 (Simulation time: 0 hr 5 min 7 sec) 
Heartbeat CPU 0 instructions: 120000001 cycles: 30000077 heartbeat IPC: 4 cumulative IPC: 3.99999 (Simulation time: 0 hr 5 min 33 sec) 
Heartbeat CPU 0 instructions: 130000001 cycles: 32500077 heartbeat IPC: 4 cumulative IPC: 3.99999 (Simulation time: 0 hr 5 min 58 sec) 
Heartbeat CPU 0 instructions: 140000001 cycles: 35000077 heartbeat IPC: 4 cumulative IPC: 3.99999 (Simulation time: 0 hr 6 min 25 sec) 
Heartbeat CPU 0 instructions: 150000001 cycles: 37500077 heartbeat IPC: 4 cumulative IPC: 3.99999 (Simulation time: 0 hr 6 min 52 sec) 
Heartbeat CPU 0 instructions: 160000001 cycles: 40000077 heartbeat IPC: 4 cumulative IPC: 3.99999 (Simulation time: 0 hr 7 min 21 sec) 
Heartbeat CPU 0 instructions: 170000001 cycles: 42500077 heartbeat IPC: 4 cumulative IPC: 3.99999 (Simulation time: 0 hr 7 min 47 sec) 
Heartbeat CPU 0 instructions: 180000001 cycles: 45000077 heartbeat IPC: 4 cumulative IPC: 3.99999 (Simulation time: 0 hr 8 min 14 sec) 
Heartbeat CPU 0 instructions: 190000001 cycles: 47500077 heartbeat IPC: 4 cumulative IPC: 3.99999 (Simulation time: 0 hr 8 min 41 sec) 
Heartbeat CPU 0 instructions: 200000001 cycles: 50000077 heartbeat IPC: 4 cumulative IPC: 3.99999 (Simulation time: 0 hr 9 min 11 sec) 

Warmup complete CPU 0 instructions: 200000001 cycles: 50000077 (Simulation time: 0 hr 9 min 11 sec) 

Heartbeat CPU 0 instructions: 210000003 cycles: 118803363 heartbeat IPC: 0.145342 cumulative IPC: 0.145342 (Simulation time: 0 hr 11 min 59 sec) 
Heartbeat CPU 0 instructions: 220000003 cycles: 187135068 heartbeat IPC: 0.146345 cumulative IPC: 0.145842 (Simulation time: 0 hr 14 min 52 sec) 
Heartbeat CPU 0 instructions: 230000000 cycles: 255489996 heartbeat IPC: 0.146295 cumulative IPC: 0.145993 (Simulation time: 0 hr 17 min 49 sec) 
Heartbeat CPU 0 instructions: 240000001 cycles: 323580059 heartbeat IPC: 0.146864 cumulative IPC: 0.14621 (Simulation time: 0 hr 20 min 40 sec) 
Heartbeat CPU 0 instructions: 250000001 cycles: 391682815 heartbeat IPC: 0.146837 cumulative IPC: 0.146335 (Simulation time: 0 hr 23 min 37 sec) 
Heartbeat CPU 0 instructions: 260000002 cycles: 459563167 heartbeat IPC: 0.147318 cumulative IPC: 0.146498 (Simulation time: 0 hr 26 min 47 sec) 
Heartbeat CPU 0 instructions: 270000002 cycles: 527453611 heartbeat IPC: 0.147296 cumulative IPC: 0.146611 (Simulation time: 0 hr 29 min 55 sec) 
Heartbeat CPU 0 instructions: 280000000 cycles: 595186967 heartbeat IPC: 0.147638 cumulative IPC: 0.146739 (Simulation time: 0 hr 33 min 0 sec) 
Heartbeat CPU 0 instructions: 290000000 cycles: 663147713 heartbeat IPC: 0.147144 cumulative IPC: 0.146784 (Simulation time: 0 hr 35 min 22 sec) 
Heartbeat CPU 0 instructions: 300000001 cycles: 731290168 heartbeat IPC: 0.146751 cumulative IPC: 0.14678 (Simulation time: 0 hr 37 min 48 sec) 
Heartbeat CPU 0 instructions: 310000002 cycles: 798858573 heartbeat IPC: 0.147998 cumulative IPC: 0.14689 (Simulation time: 0 hr 40 min 16 sec) 
Heartbeat CPU 0 instructions: 320000000 cycles: 866588400 heartbeat IPC: 0.147645 cumulative IPC: 0.146953 (Simulation time: 0 hr 43 min 2 sec) 
Heartbeat CPU 0 instructions: 330000004 cycles: 934061314 heartbeat IPC: 0.148208 cumulative IPC: 0.147049 (Simulation time: 0 hr 45 min 58 sec) 
Heartbeat CPU 0 instructions: 340000000 cycles: 1002059601 heartbeat IPC: 0.147062 cumulative IPC: 0.14705 (Simulation time: 0 hr 49 min 1 sec) 
Heartbeat CPU 0 instructions: 350000000 cycles: 1069935369 heartbeat IPC: 0.147328 cumulative IPC: 0.147068 (Simulation time: 0 hr 52 min 11 sec) 
Heartbeat CPU 0 instructions: 360000003 cycles: 1137881202 heartbeat IPC: 0.147176 cumulative IPC: 0.147075 (Simulation time: 0 hr 55 min 19 sec) 
Heartbeat CPU 0 instructions: 370000002 cycles: 1205252603 heartbeat IPC: 0.148431 cumulative IPC: 0.147154 (Simulation time: 0 hr 58 min 21 sec) 
Heartbeat CPU 0 instructions: 380000001 cycles: 1272962428 heartbeat IPC: 0.147689 cumulative IPC: 0.147184 (Simulation time: 1 hr 1 min 15 sec) 
Heartbeat CPU 0 instructions: 390000001 cycles: 1340324208 heartbeat IPC: 0.148452 cumulative IPC: 0.14725 (Simulation time: 1 hr 3 min 54 sec) 
Heartbeat CPU 0 instructions: 400000000 cycles: 1408104788 heartbeat IPC: 0.147535 cumulative IPC: 0.147264 (Simulation time: 1 hr 6 min 37 sec) 
Heartbeat CPU 0 instructions: 410000001 cycles: 1475394753 heartbeat IPC: 0.148611 cumulative IPC: 0.147328 (Simulation time: 1 hr 9 min 27 sec) 
Heartbeat CPU 0 instructions: 420000003 cycles: 1542940712 heartbeat IPC: 0.148047 cumulative IPC: 0.14736 (Simulation time: 1 hr 11 min 59 sec) 
Heartbeat CPU 0 instructions: 430000001 cycles: 1609980498 heartbeat IPC: 0.149165 cumulative IPC: 0.147438 (Simulation time: 1 hr 14 min 39 sec) 
Heartbeat CPU 0 instructions: 440000002 cycles: 1677315658 heartbeat IPC: 0.148511 cumulative IPC: 0.147482 (Simulation time: 1 hr 17 min 12 sec) 
Heartbeat CPU 0 instructions: 450000002 cycles: 1744278692 heartbeat IPC: 0.149336 cumulative IPC: 0.147555 (Simulation time: 1 hr 19 min 45 sec) 
Heartbeat CPU 0 instructions: 460000003 cycles: 1811737077 heartbeat IPC: 0.14824 cumulative IPC: 0.147582 (Simulation time: 1 hr 22 min 22 sec) 
Heartbeat CPU 0 instructions: 470000001 cycles: 1878354215 heartbeat IPC: 0.150111 cumulative IPC: 0.147674 (Simulation time: 1 hr 25 min 13 sec) 
Heartbeat CPU 0 instructions: 480000001 cycles: 1945834022 heartbeat IPC: 0.148192 cumulative IPC: 0.147692 (Simulation time: 1 hr 27 min 44 sec) 
Heartbeat CPU 0 instructions: 490000000 cycles: 2013082128 heartbeat IPC: 0.148703 cumulative IPC: 0.147727 (Simulation time: 1 hr 30 min 29 sec) 
Heartbeat CPU 0 instructions: 500000001 cycles: 2080207384 heartbeat IPC: 0.148975 cumulative IPC: 0.147768 (Simulation time: 1 hr 33 min 17 sec) 
Heartbeat CPU 0 instructions: 510000001 cycles: 2147272068 heartbeat IPC: 0.14911 cumulative IPC: 0.147811 (Simulation time: 1 hr 35 min 57 sec) 
Heartbeat CPU 0 instructions: 520000004 cycles: 2214777388 heartbeat IPC: 0.148137 cumulative IPC: 0.147821 (Simulation time: 1 hr 38 min 41 sec) 
Heartbeat CPU 0 instructions: 530000001 cycles: 2282176694 heartbeat IPC: 0.148369 cumulative IPC: 0.147838 (Simulation time: 1 hr 41 min 25 sec) 
Heartbeat CPU 0 instructions: 540000000 cycles: 2349186103 heartbeat IPC: 0.149233 cumulative IPC: 0.147878 (Simulation time: 1 hr 43 min 55 sec) 
Heartbeat CPU 0 instructions: 550000002 cycles: 2417033438 heartbeat IPC: 0.14739 cumulative IPC: 0.147864 (Simulation time: 1 hr 46 min 43 sec) 
Heartbeat CPU 0 instructions: 560000000 cycles: 2484360966 heartbeat IPC: 0.148528 cumulative IPC: 0.147883 (Simulation time: 1 hr 49 min 21 sec) 
Heartbeat CPU 0 instructions: 570000001 cycles: 2551683851 heartbeat IPC: 0.148538 cumulative IPC: 0.1479 (Simulation time: 1 hr 51 min 59 sec) 
Heartbeat CPU 0 instructions: 580000004 cycles: 2619277527 heartbeat IPC: 0.147943 cumulative IPC: 0.147902 (Simulation time: 1 hr 54 min 51 sec) 
Heartbeat CPU 0 instructions: 590000000 cycles: 2686278010 heartbeat IPC: 0.149253 cumulative IPC: 0.147936 (Simulation time: 1 hr 57 min 15 sec) 
Heartbeat CPU 0 instructions: 600000002 cycles: 2753414699 heartbeat IPC: 0.14895 cumulative IPC: 0.147961 (Simulation time: 1 hr 59 min 17 sec) 
Heartbeat CPU 0 instructions: 610000001 cycles: 2820850689 heartbeat IPC: 0.148289 cumulative IPC: 0.147969 (Simulation time: 2 hr 1 min 18 sec) 
Heartbeat CPU 0 instructions: 620000001 cycles: 2888008829 heartbeat IPC: 0.148902 cumulative IPC: 0.147991 (Simulation time: 2 hr 3 min 19 sec) 
Heartbeat CPU 0 instructions: 630000000 cycles: 2955345844 heartbeat IPC: 0.148507 cumulative IPC: 0.148003 (Simulation time: 2 hr 5 min 21 sec) 
Heartbeat CPU 0 instructions: 640000001 cycles: 3022690771 heartbeat IPC: 0.148489 cumulative IPC: 0.148014 (Simulation time: 2 hr 7 min 21 sec) 
Heartbeat CPU 0 instructions: 650000000 cycles: 3089636584 heartbeat IPC: 0.149375 cumulative IPC: 0.148044 (Simulation time: 2 hr 9 min 21 sec) 
Heartbeat CPU 0 instructions: 660000003 cycles: 3156958374 heartbeat IPC: 0.14854 cumulative IPC: 0.148055 (Simulation time: 2 hr 11 min 23 sec) 
Heartbeat CPU 0 instructions: 670000000 cycles: 3223981101 heartbeat IPC: 0.149203 cumulative IPC: 0.148079 (Simulation time: 2 hr 13 min 25 sec) 
Heartbeat CPU 0 instructions: 680000000 cycles: 3291274420 heartbeat IPC: 0.148603 cumulative IPC: 0.14809 (Simulation time: 2 hr 15 min 27 sec) 
Heartbeat CPU 0 instructions: 690000001 cycles: 3358614834 heartbeat IPC: 0.148499 cumulative IPC: 0.148098 (Simulation time: 2 hr 17 min 27 sec) 
Heartbeat CPU 0 instructions: 700000002 cycles: 3425850018 heartbeat IPC: 0.148732 cumulative IPC: 0.148111 (Simulation time: 2 hr 19 min 28 sec) 
Heartbeat CPU 0 instructions: 710000002 cycles: 3493153432 heartbeat IPC: 0.148581 cumulative IPC: 0.14812 (Simulation time: 2 hr 21 min 30 sec) 
Heartbeat CPU 0 instructions: 720000002 cycles: 3560683027 heartbeat IPC: 0.148083 cumulative IPC: 0.148119 (Simulation time: 2 hr 23 min 32 sec) 
Heartbeat CPU 0 instructions: 730000001 cycles: 3627889258 heartbeat IPC: 0.148796 cumulative IPC: 0.148132 (Simulation time: 2 hr 25 min 34 sec) 
Heartbeat CPU 0 instructions: 740000002 cycles: 3694943264 heartbeat IPC: 0.149134 cumulative IPC: 0.14815 (Simulation time: 2 hr 27 min 35 sec) 
Heartbeat CPU 0 instructions: 750000001 cycles: 3761661399 heartbeat IPC: 0.149884 cumulative IPC: 0.148182 (Simulation time: 2 hr 29 min 36 sec) 
Heartbeat CPU 0 instructions: 760000001 cycles: 3829463316 heartbeat IPC: 0.147488 cumulative IPC: 0.148169 (Simulation time: 2 hr 31 min 38 sec) 
Heartbeat CPU 0 instructions: 770000000 cycles: 3896775087 heartbeat IPC: 0.148562 cumulative IPC: 0.148176 (Simulation time: 2 hr 33 min 39 sec) 
Heartbeat CPU 0 instructions: 780000002 cycles: 3963969518 heartbeat IPC: 0.148822 cumulative IPC: 0.148187 (Simulation time: 2 hr 35 min 40 sec) 
Heartbeat CPU 0 instructions: 790000001 cycles: 4031004947 heartbeat IPC: 0.149175 cumulative IPC: 0.148204 (Simulation time: 2 hr 37 min 39 sec) 
Heartbeat CPU 0 instructions: 800000002 cycles: 4098217339 heartbeat IPC: 0.148782 cumulative IPC: 0.148213 (Simulation time: 2 hr 39 min 39 sec) 
Heartbeat CPU 0 instructions: 810000004 cycles: 4165500827 heartbeat IPC: 0.148625 cumulative IPC: 0.14822 (Simulation time: 2 hr 41 min 40 sec) 
Heartbeat CPU 0 instructions: 820000000 cycles: 4232708868 heartbeat IPC: 0.148792 cumulative IPC: 0.148229 (Simulation time: 2 hr 43 min 39 sec) 
Heartbeat CPU 0 instructions: 830000000 cycles: 4299959448 heartbeat IPC: 0.148698 cumulative IPC: 0.148237 (Simulation time: 2 hr 45 min 40 sec) 
Heartbeat CPU 0 instructions: 840000000 cycles: 4367159294 heartbeat IPC: 0.14881 cumulative IPC: 0.148246 (Simulation time: 2 hr 47 min 40 sec) 
Heartbeat CPU 0 instructions: 850000003 cycles: 4433980313 heartbeat IPC: 0.149654 cumulative IPC: 0.148267 (Simulation time: 2 hr 49 min 39 sec) 
Heartbeat CPU 0 instructions: 860000003 cycles: 4500755552 heartbeat IPC: 0.149756 cumulative IPC: 0.148289 (Simulation time: 2 hr 51 min 39 sec) 
Heartbeat CPU 0 instructions: 870000001 cycles: 4568314574 heartbeat IPC: 0.148019 cumulative IPC: 0.148285 (Simulation time: 2 hr 53 min 40 sec) 
Heartbeat CPU 0 instructions: 880000000 cycles: 4635442070 heartbeat IPC: 0.14897 cumulative IPC: 0.148295 (Simulation time: 2 hr 55 min 42 sec) 
Heartbeat CPU 0 instructions: 890000003 cycles: 4702550914 heartbeat IPC: 0.149012 cumulative IPC: 0.148306 (Simulation time: 2 hr 57 min 43 sec) 
Heartbeat CPU 0 instructions: 900000000 cycles: 4769285274 heartbeat IPC: 0.149848 cumulative IPC: 0.148328 (Simulation time: 2 hr 59 min 44 sec) 
Heartbeat CPU 0 instructions: 910000001 cycles: 4836487323 heartbeat IPC: 0.148805 cumulative IPC: 0.148334 (Simulation time: 3 hr 1 min 45 sec) 
Heartbeat CPU 0 instructions: 920000000 cycles: 4903555606 heartbeat IPC: 0.149102 cumulative IPC: 0.148345 (Simulation time: 3 hr 3 min 46 sec) 
Heartbeat CPU 0 instructions: 930000000 cycles: 4970981960 heartbeat IPC: 0.14831 cumulative IPC: 0.148344 (Simulation time: 3 hr 5 min 46 sec) 
Heartbeat CPU 0 instructions: 940000002 cycles: 5038133419 heartbeat IPC: 0.148917 cumulative IPC: 0.148352 (Simulation time: 3 hr 7 min 47 sec) 
Heartbeat CPU 0 instructions: 950000000 cycles: 5105271173 heartbeat IPC: 0.148947 cumulative IPC: 0.14836 (Simulation time: 3 hr 9 min 47 sec) 
Heartbeat CPU 0 instructions: 960000002 cycles: 5172413774 heartbeat IPC: 0.148937 cumulative IPC: 0.148368 (Simulation time: 3 hr 11 min 51 sec) 
Heartbeat CPU 0 instructions: 970000004 cycles: 5239493473 heartbeat IPC: 0.149076 cumulative IPC: 0.148377 (Simulation time: 3 hr 13 min 53 sec) 
Heartbeat CPU 0 instructions: 980000000 cycles: 5306338523 heartbeat IPC: 0.1496 cumulative IPC: 0.148392 (Simulation time: 3 hr 15 min 53 sec) 
Heartbeat CPU 0 instructions: 990000001 cycles: 5373190621 heartbeat IPC: 0.149584 cumulative IPC: 0.148407 (Simulation time: 3 hr 17 min 53 sec) 
Heartbeat CPU 0 instructions: 1000000000 cycles: 5440603683 heartbeat IPC: 0.148339 cumulative IPC: 0.148406 (Simulation time: 3 hr 19 min 53 sec) 
Heartbeat CPU 0 instructions: 1010000002 cycles: 5507702002 heartbeat IPC: 0.149035 cumulative IPC: 0.148414 (Simulation time: 3 hr 21 min 53 sec) 
Heartbeat CPU 0 instructions: 1020000000 cycles: 5574443206 heartbeat IPC: 0.149832 cumulative IPC: 0.148431 (Simulation time: 3 hr 23 min 53 sec) 
Heartbeat CPU 0 instructions: 1030000000 cycles: 5641423285 heartbeat IPC: 0.149298 cumulative IPC: 0.148442 (Simulation time: 3 hr 25 min 54 sec) 
Heartbeat CPU 0 instructions: 1040000000 cycles: 5708969563 heartbeat IPC: 0.148047 cumulative IPC: 0.148437 (Simulation time: 3 hr 27 min 54 sec) 
Heartbeat CPU 0 instructions: 1050000004 cycles: 5776068608 heartbeat IPC: 0.149033 cumulative IPC: 0.148444 (Simulation time: 3 hr 29 min 54 sec) 
Heartbeat CPU 0 instructions: 1060000002 cycles: 5843440706 heartbeat IPC: 0.148429 cumulative IPC: 0.148444 (Simulation time: 3 hr 31 min 55 sec) 
Heartbeat CPU 0 instructions: 1070000003 cycles: 5910762445 heartbeat IPC: 0.14854 cumulative IPC: 0.148445 (Simulation time: 3 hr 34 min 11 sec) 
Heartbeat CPU 0 instructions: 1080000000 cycles: 5977818554 heartbeat IPC: 0.149129 cumulative IPC: 0.148453 (Simulation time: 3 hr 36 min 13 sec) 
Heartbeat CPU 0 instructions: 1090000001 cycles: 6045154121 heartbeat IPC: 0.14851 cumulative IPC: 0.148453 (Simulation time: 3 hr 38 min 22 sec) 
Heartbeat CPU 0 instructions: 1100000002 cycles: 6112038564 heartbeat IPC: 0.149512 cumulative IPC: 0.148465 (Simulation time: 3 hr 40 min 28 sec) 
Heartbeat CPU 0 instructions: 1110000001 cycles: 6179327245 heartbeat IPC: 0.148613 cumulative IPC: 0.148467 (Simulation time: 3 hr 42 min 28 sec) 
Heartbeat CPU 0 instructions: 1120000000 cycles: 6246700248 heartbeat IPC: 0.148427 cumulative IPC: 0.148466 (Simulation time: 3 hr 44 min 31 sec) 
Heartbeat CPU 0 instructions: 1130000002 cycles: 6314301518 heartbeat IPC: 0.147926 cumulative IPC: 0.14846 (Simulation time: 3 hr 46 min 31 sec) 
Heartbeat CPU 0 instructions: 1140000000 cycles: 6381098604 heartbeat IPC: 0.149707 cumulative IPC: 0.148473 (Simulation time: 3 hr 48 min 31 sec) 
Heartbeat CPU 0 instructions: 1150000001 cycles: 6448288709 heartbeat IPC: 0.148831 cumulative IPC: 0.148477 (Simulation time: 3 hr 50 min 30 sec) 
Heartbeat CPU 0 instructions: 1160000001 cycles: 6515590398 heartbeat IPC: 0.148585 cumulative IPC: 0.148478 (Simulation time: 3 hr 52 min 31 sec) 
Heartbeat CPU 0 instructions: 1170000003 cycles: 6582712473 heartbeat IPC: 0.148982 cumulative IPC: 0.148483 (Simulation time: 3 hr 54 min 38 sec) 
Heartbeat CPU 0 instructions: 1180000000 cycles: 6650042959 heartbeat IPC: 0.148521 cumulative IPC: 0.148484 (Simulation time: 3 hr 56 min 41 sec) 
Heartbeat CPU 0 instructions: 1190000000 cycles: 6717009588 heartbeat IPC: 0.149328 cumulative IPC: 0.148492 (Simulation time: 3 hr 58 min 47 sec) 
*** Reached end of trace: tracer/pin/traces/xs-64hashxl-2.champsim.xz
Heartbeat CPU 0 instructions: 1200000004 cycles: 6784230975 heartbeat IPC: 0.148762 cumulative IPC: 0.148495 (Simulation time: 4 hr 0 min 52 sec) 
Finished CPU 0 instructions: 1000000003 cycles: 6734230898 cumulative IPC: 0.148495 (Simulation time: 4 hr 0 min 52 sec) 

ChampSim completed all CPUs

Region of Interest Statistics

CPU 0 cumulative IPC: 0.148495 instructions: 1000000003 cycles: 6734230898
cpu0_DTLB TOTAL     ACCESS:  114805225  HIT:  105890561  MISS:    8914664
cpu0_DTLB LOAD      ACCESS:   98336596  HIT:   89421932  MISS:    8914664
cpu0_DTLB RFO       ACCESS:   16468629  HIT:   16468629  MISS:          0
cpu0_DTLB PREFETCH  ACCESS:          0  HIT:          0  MISS:          0
cpu0_DTLB WRITEBACK ACCESS:          0  HIT:          0  MISS:          0
cpu0_DTLB TRANSLATION ACCESS:          0  HIT:          0  MISS:          0
cpu0_DTLB PREFETCH  REQUESTED:          0  ISSUED:          0  USEFUL:          0  USELESS:          0
cpu0_DTLB AVERAGE MISS LATENCY: 37.3464 cycles
cpu0_ITLB TOTAL     ACCESS:  110760821  HIT:  110760821  MISS:          0
cpu0_ITLB LOAD      ACCESS:  110760821  HIT:  110760821  MISS:          0
cpu0_ITLB RFO       ACCESS:          0  HIT:          0  MISS:          0
cpu0_ITLB PREFETCH  ACCESS:          0  HIT:          0  MISS:          0
cpu0_ITLB WRITEBACK ACCESS:          0  HIT:          0  MISS:          0
cpu0_ITLB TRANSLATION ACCESS:          0  HIT:          0  MISS:          0
cpu0_ITLB PREFETCH  REQUESTED:          0  ISSUED:          0  USEFUL:          0  USELESS:          0
cpu0_ITLB AVERAGE MISS LATENCY: -nan cycles
cpu0_L1I TOTAL     ACCESS:          1  HIT:          1  MISS:          0
cpu0_L1I LOAD      ACCESS:          1  HIT:          1  MISS:          0
cpu0_L1I RFO       ACCESS:          0  HIT:          0  MISS:          0
cpu0_L1I PREFETCH  ACCESS:          0  HIT:          0  MISS:          0
cpu0_L1I WRITEBACK ACCESS:          0  HIT:          0  MISS:          0
cpu0_L1I TRANSLATION ACCESS:          0  HIT:          0  MISS:          0
cpu0_L1I PREFETCH  REQUESTED:          0  ISSUED:          0  USEFUL:          0  USELESS:          0
cpu0_L1I AVERAGE MISS LATENCY: -nan cycles
cpu0_STLB TOTAL     ACCESS:    8914664  HIT:     178834  MISS:    8735830
cpu0_STLB LOAD      ACCESS:    8914664  HIT:     178834  MISS:    8735830
cpu0_STLB RFO       ACCESS:          0  HIT:          0  MISS:          0
cpu0_STLB PREFETCH  ACCESS:          0  HIT:          0  MISS:          0
cpu0_STLB WRITEBACK ACCESS:          0  HIT:          0  MISS:          0
cpu0_STLB TRANSLATION ACCESS:          0  HIT:          0  MISS:          0
cpu0_STLB PREFETCH  REQUESTED:          0  ISSUED:          0  USEFUL:          0  USELESS:          0
cpu0_STLB AVERAGE MISS LATENCY: 28.923 cycles
cpu0_L1D TOTAL     ACCESS:  279193284  HIT:  202347899  MISS:   76845385
cpu0_L1D LOAD      ACCESS:  121873385  HIT:   81537373  MISS:   40336012
cpu0_L1D RFO       ACCESS:   37111697  HIT:   37111697  MISS:          0
cpu0_L1D PREFETCH  ACCESS:  112637812  HIT:   80286658  MISS:   32351154
cpu0_L1D WRITEBACK ACCESS:          0  HIT:          0  MISS:          0
cpu0_L1D TRANSLATION ACCESS:    7570390  HIT:    3412171  MISS:    4158219
cpu0_L1D PREFETCH  REQUESTED:  124176129  ISSUED:  123781399  USEFUL:    9963172  USELESS:   24934911
cpu0_L1D AVERAGE MISS LATENCY: 421.44 cycles
cpu0_L2C TOTAL     ACCESS:   79429158  HIT:    2355655  MISS:   77073503
cpu0_L2C LOAD      ACCESS:   37789081  HIT:     117894  MISS:   37671187
cpu0_L2C RFO       ACCESS:          0  HIT:          0  MISS:          0
cpu0_L2C PREFETCH  ACCESS:   37443180  HIT:     494614  MISS:   36948566
cpu0_L2C WRITEBACK ACCESS:      38678  HIT:      36967  MISS:       1711
cpu0_L2C TRANSLATION ACCESS:    4158219  HIT:    1706180  MISS:    2452039
cpu0_L2C PREFETCH  REQUESTED:    3706998  ISSUED:    3549932  USEFUL:        401  USELESS:    2544473
cpu0_L2C AVERAGE MISS LATENCY: 442.424 cycles
LLC TOTAL     ACCESS:   77930146  HIT:    3710436  MISS:   74219710
LLC LOAD      ACCESS:   37671187  HIT:     226682  MISS:   37444505
LLC RFO       ACCESS:          0  HIT:          0  MISS:          0
LLC PREFETCH  ACCESS:   37780209  HIT:    1005026  MISS:   36775183
LLC WRITEBACK ACCESS:      26711  HIT:      26711  MISS:          0
LLC TRANSLATION ACCESS:    2452039  HIT:    2452017  MISS:         22
LLC PREFETCH  REQUESTED:          0  ISSUED:          0  USEFUL:          0  USELESS:          0
LLC AVERAGE MISS LATENCY: 440.4 cycles

DRAM Statistics
 CHANNEL 0
 RQ ROW_BUFFER_HIT:   18284702  ROW_BUFFER_MISS:   55935008
 DBUS AVG_CONGESTED_CYCLE:    3.90722
 WQ ROW_BUFFER_HIT:         16  ROW_BUFFER_MISS:          2  FULL:          0


CPU 0 Branch Prediction Accuracy: 86.2024% MPKI: 19.0929 Average ROB Occupancy at Mispredict: 34.0564
Branch type MPKI
BRANCH_DIRECT_JUMP: 1e-06
BRANCH_INDIRECT: 0
BRANCH_CONDITIONAL: 19.0929
BRANCH_DIRECT_CALL: 0
BRANCH_INDIRECT_CALL: 0
BRANCH_RETURN: 0

