
*** ChampSim Multicore Out-of-Order Simulator ***

Warmup Instructions: 1000000
Simulation Instructions: 1000000000
Number of CPUs: 1
Off-chip DRAM Size: 4 GiB Channels: 1 Width: 64-bit Data Rate: 3200 MT/s

VirtualMemory physical capacity: 8588881920 num_ppages: 2096895
VirtualMemory page size: 4096 log2_page_size: 12

CPU 0 runs tracer/pin/traces/spec2k17/607.cactuBSSN_s-2421B.champsimtrace.xz
Basic BTB sets: 1024 ways: 8 indirect buffer size: 4096 RAS size: 64
cpu0_L1D next line prefetcher
cpu0_L2C IP-based stride prefetcher
WARNING: The extended signature CACHE::prefetch_line(ip, base_addr, pf_addr, fill_this_level, prefetch_metadata) is deprecated.
WARNING: Use CACHE::prefetch_line(pf_addr, fill_this_level, prefetch_metadata) instead.

Warmup complete CPU 0 instructions: 1000004 cycles: 392969 (Simulation time: 0 hr 0 min 3 sec) 

Heartbeat CPU 0 instructions: 10000003 cycles: 8240528 heartbeat IPC: 1.21351 cumulative IPC: 1.14685 (Simulation time: 0 hr 0 min 55 sec) 
Heartbeat CPU 0 instructions: 20000001 cycles: 17111924 heartbeat IPC: 1.12722 cumulative IPC: 1.13643 (Simulation time: 0 hr 1 min 52 sec) 
Heartbeat CPU 0 instructions: 30000000 cycles: 25869507 heartbeat IPC: 1.14187 cumulative IPC: 1.1383 (Simulation time: 0 hr 2 min 49 sec) 
Heartbeat CPU 0 instructions: 40000000 cycles: 34598387 heartbeat IPC: 1.14562 cumulative IPC: 1.14017 (Simulation time: 0 hr 3 min 46 sec) 
Heartbeat CPU 0 instructions: 50000003 cycles: 43354141 heartbeat IPC: 1.14211 cumulative IPC: 1.14056 (Simulation time: 0 hr 4 min 43 sec) 
Heartbeat CPU 0 instructions: 60000002 cycles: 55697999 heartbeat IPC: 0.810119 cumulative IPC: 1.06681 (Simulation time: 0 hr 5 min 51 sec) 
Heartbeat CPU 0 instructions: 70000000 cycles: 68040035 heartbeat IPC: 0.810239 cumulative IPC: 1.02 (Simulation time: 0 hr 6 min 59 sec) 
Heartbeat CPU 0 instructions: 80000001 cycles: 80414425 heartbeat IPC: 0.808121 cumulative IPC: 0.987235 (Simulation time: 0 hr 8 min 9 sec) 
Heartbeat CPU 0 instructions: 90000000 cycles: 92727314 heartbeat IPC: 0.812157 cumulative IPC: 0.963888 (Simulation time: 0 hr 9 min 18 sec) 
Heartbeat CPU 0 instructions: 100000001 cycles: 105032558 heartbeat IPC: 0.812662 cumulative IPC: 0.946105 (Simulation time: 0 hr 10 min 29 sec) 
Heartbeat CPU 0 instructions: 110000000 cycles: 117343188 heartbeat IPC: 0.812306 cumulative IPC: 0.93202 (Simulation time: 0 hr 11 min 40 sec) 
Heartbeat CPU 0 instructions: 120000001 cycles: 129711304 heartbeat IPC: 0.808531 cumulative IPC: 0.92021 (Simulation time: 0 hr 12 min 56 sec) 
Heartbeat CPU 0 instructions: 130000001 cycles: 142158021 heartbeat IPC: 0.803425 cumulative IPC: 0.909956 (Simulation time: 0 hr 14 min 16 sec) 
Heartbeat CPU 0 instructions: 140000002 cycles: 154664541 heartbeat IPC: 0.799583 cumulative IPC: 0.901008 (Simulation time: 0 hr 15 min 42 sec) 
Heartbeat CPU 0 instructions: 150000003 cycles: 167365854 heartbeat IPC: 0.78732 cumulative IPC: 0.89236 (Simulation time: 0 hr 17 min 6 sec) 
Heartbeat CPU 0 instructions: 160000004 cycles: 179786050 heartbeat IPC: 0.80514 cumulative IPC: 0.886322 (Simulation time: 0 hr 18 min 33 sec) 
Heartbeat CPU 0 instructions: 170000001 cycles: 192182692 heartbeat IPC: 0.80667 cumulative IPC: 0.881173 (Simulation time: 0 hr 20 min 3 sec) 
Heartbeat CPU 0 instructions: 180000000 cycles: 204372424 heartbeat IPC: 0.820363 cumulative IPC: 0.877539 (Simulation time: 0 hr 21 min 35 sec) 
Heartbeat CPU 0 instructions: 190000000 cycles: 216805717 heartbeat IPC: 0.804292 cumulative IPC: 0.873331 (Simulation time: 0 hr 23 min 11 sec) 
Heartbeat CPU 0 instructions: 200000004 cycles: 229296818 heartbeat IPC: 0.80057 cumulative IPC: 0.869361 (Simulation time: 0 hr 24 min 52 sec) 
Heartbeat CPU 0 instructions: 210000004 cycles: 241774851 heartbeat IPC: 0.801408 cumulative IPC: 0.865848 (Simulation time: 0 hr 26 min 40 sec) 
Heartbeat CPU 0 instructions: 220000000 cycles: 254353924 heartbeat IPC: 0.794971 cumulative IPC: 0.862337 (Simulation time: 0 hr 28 min 29 sec) 
Heartbeat CPU 0 instructions: 230000001 cycles: 266662344 heartbeat IPC: 0.812452 cumulative IPC: 0.860031 (Simulation time: 0 hr 30 min 21 sec) 
Heartbeat CPU 0 instructions: 240000000 cycles: 279381376 heartbeat IPC: 0.786223 cumulative IPC: 0.856666 (Simulation time: 0 hr 32 min 16 sec) 
Heartbeat CPU 0 instructions: 250000000 cycles: 291916176 heartbeat IPC: 0.797779 cumulative IPC: 0.854134 (Simulation time: 0 hr 34 min 11 sec) 
Heartbeat CPU 0 instructions: 260000000 cycles: 304202002 heartbeat IPC: 0.813946 cumulative IPC: 0.852509 (Simulation time: 0 hr 36 min 4 sec) 
Heartbeat CPU 0 instructions: 270000000 cycles: 316801023 heartbeat IPC: 0.793712 cumulative IPC: 0.850168 (Simulation time: 0 hr 37 min 58 sec) 
Heartbeat CPU 0 instructions: 280000000 cycles: 329205392 heartbeat IPC: 0.806168 cumulative IPC: 0.848508 (Simulation time: 0 hr 39 min 51 sec) 
Heartbeat CPU 0 instructions: 290000003 cycles: 341606636 heartbeat IPC: 0.806371 cumulative IPC: 0.846977 (Simulation time: 0 hr 41 min 44 sec) 
Heartbeat CPU 0 instructions: 300000000 cycles: 353877781 heartbeat IPC: 0.81492 cumulative IPC: 0.845864 (Simulation time: 0 hr 43 min 38 sec) 
Heartbeat CPU 0 instructions: 310000001 cycles: 366372958 heartbeat IPC: 0.800309 cumulative IPC: 0.844308 (Simulation time: 0 hr 45 min 32 sec) 
Heartbeat CPU 0 instructions: 320000003 cycles: 378993094 heartbeat IPC: 0.792385 cumulative IPC: 0.842578 (Simulation time: 0 hr 47 min 26 sec) 
Heartbeat CPU 0 instructions: 330000003 cycles: 391541902 heartbeat IPC: 0.796888 cumulative IPC: 0.841112 (Simulation time: 0 hr 49 min 19 sec) 
Heartbeat CPU 0 instructions: 340000001 cycles: 404137175 heartbeat IPC: 0.793948 cumulative IPC: 0.83964 (Simulation time: 0 hr 51 min 14 sec) 
Heartbeat CPU 0 instructions: 350000003 cycles: 416484695 heartbeat IPC: 0.809879 cumulative IPC: 0.838757 (Simulation time: 0 hr 53 min 6 sec) 
Heartbeat CPU 0 instructions: 360000000 cycles: 428889361 heartbeat IPC: 0.806148 cumulative IPC: 0.837813 (Simulation time: 0 hr 54 min 59 sec) 
Heartbeat CPU 0 instructions: 370000002 cycles: 441320138 heartbeat IPC: 0.804455 cumulative IPC: 0.836873 (Simulation time: 0 hr 56 min 53 sec) 
Heartbeat CPU 0 instructions: 380000003 cycles: 453721731 heartbeat IPC: 0.806348 cumulative IPC: 0.836038 (Simulation time: 0 hr 58 min 45 sec) 
Heartbeat CPU 0 instructions: 390000000 cycles: 465948020 heartbeat IPC: 0.817909 cumulative IPC: 0.835562 (Simulation time: 1 hr 0 min 40 sec) 
Heartbeat CPU 0 instructions: 400000001 cycles: 478274081 heartbeat IPC: 0.811289 cumulative IPC: 0.834936 (Simulation time: 1 hr 2 min 27 sec) 
Heartbeat CPU 0 instructions: 410000003 cycles: 490878034 heartbeat IPC: 0.793402 cumulative IPC: 0.833868 (Simulation time: 1 hr 4 min 15 sec) 
Heartbeat CPU 0 instructions: 420000002 cycles: 503655111 heartbeat IPC: 0.782652 cumulative IPC: 0.832568 (Simulation time: 1 hr 6 min 8 sec) 
Heartbeat CPU 0 instructions: 430000000 cycles: 516440972 heartbeat IPC: 0.782114 cumulative IPC: 0.831318 (Simulation time: 1 hr 8 min 1 sec) 
Heartbeat CPU 0 instructions: 440000003 cycles: 528837131 heartbeat IPC: 0.806702 cumulative IPC: 0.830741 (Simulation time: 1 hr 9 min 55 sec) 
Heartbeat CPU 0 instructions: 450000001 cycles: 541222763 heartbeat IPC: 0.807387 cumulative IPC: 0.830206 (Simulation time: 1 hr 11 min 48 sec) 
Heartbeat CPU 0 instructions: 460000001 cycles: 553549129 heartbeat IPC: 0.811269 cumulative IPC: 0.829784 (Simulation time: 1 hr 13 min 40 sec) 
Heartbeat CPU 0 instructions: 470000000 cycles: 566052790 heartbeat IPC: 0.799766 cumulative IPC: 0.82912 (Simulation time: 1 hr 15 min 31 sec) 
Heartbeat CPU 0 instructions: 480000004 cycles: 578550332 heartbeat IPC: 0.800158 cumulative IPC: 0.828494 (Simulation time: 1 hr 17 min 23 sec) 
Heartbeat CPU 0 instructions: 490000004 cycles: 590929179 heartbeat IPC: 0.80783 cumulative IPC: 0.828061 (Simulation time: 1 hr 19 min 15 sec) 
Heartbeat CPU 0 instructions: 500000000 cycles: 603496572 heartbeat IPC: 0.79571 cumulative IPC: 0.827387 (Simulation time: 1 hr 21 min 8 sec) 
Heartbeat CPU 0 instructions: 510000002 cycles: 615993733 heartbeat IPC: 0.800182 cumulative IPC: 0.826835 (Simulation time: 1 hr 22 min 58 sec) 
Heartbeat CPU 0 instructions: 520000001 cycles: 628726653 heartbeat IPC: 0.785366 cumulative IPC: 0.825994 (Simulation time: 1 hr 24 min 49 sec) 
Heartbeat CPU 0 instructions: 530000001 cycles: 641087147 heartbeat IPC: 0.809029 cumulative IPC: 0.825667 (Simulation time: 1 hr 26 min 40 sec) 
Heartbeat CPU 0 instructions: 540000003 cycles: 653397471 heartbeat IPC: 0.812326 cumulative IPC: 0.825415 (Simulation time: 1 hr 28 min 29 sec) 
Heartbeat CPU 0 instructions: 550000002 cycles: 665803210 heartbeat IPC: 0.806078 cumulative IPC: 0.825055 (Simulation time: 1 hr 30 min 17 sec) 
Heartbeat CPU 0 instructions: 560000003 cycles: 678250102 heartbeat IPC: 0.803414 cumulative IPC: 0.824658 (Simulation time: 1 hr 32 min 5 sec) 
Heartbeat CPU 0 instructions: 570000001 cycles: 691001051 heartbeat IPC: 0.784255 cumulative IPC: 0.823912 (Simulation time: 1 hr 33 min 56 sec) 
Heartbeat CPU 0 instructions: 580000004 cycles: 703332826 heartbeat IPC: 0.810914 cumulative IPC: 0.823684 (Simulation time: 1 hr 35 min 42 sec) 
Heartbeat CPU 0 instructions: 590000002 cycles: 715735747 heartbeat IPC: 0.806262 cumulative IPC: 0.823381 (Simulation time: 1 hr 37 min 27 sec) 
Heartbeat CPU 0 instructions: 600000000 cycles: 728289695 heartbeat IPC: 0.796562 cumulative IPC: 0.822919 (Simulation time: 1 hr 39 min 13 sec) 
Heartbeat CPU 0 instructions: 610000000 cycles: 740636861 heartbeat IPC: 0.809902 cumulative IPC: 0.822702 (Simulation time: 1 hr 40 min 57 sec) 
Heartbeat CPU 0 instructions: 620000000 cycles: 753336764 heartbeat IPC: 0.787408 cumulative IPC: 0.822107 (Simulation time: 1 hr 42 min 41 sec) 
Heartbeat CPU 0 instructions: 630000002 cycles: 765649787 heartbeat IPC: 0.812148 cumulative IPC: 0.821946 (Simulation time: 1 hr 44 min 17 sec) 
Heartbeat CPU 0 instructions: 640000001 cycles: 778130431 heartbeat IPC: 0.801241 cumulative IPC: 0.821614 (Simulation time: 1 hr 45 min 57 sec) 
Heartbeat CPU 0 instructions: 650000000 cycles: 790741566 heartbeat IPC: 0.79295 cumulative IPC: 0.821157 (Simulation time: 1 hr 47 min 36 sec) 
Heartbeat CPU 0 instructions: 660000000 cycles: 803129606 heartbeat IPC: 0.80723 cumulative IPC: 0.820942 (Simulation time: 1 hr 49 min 16 sec) 
Heartbeat CPU 0 instructions: 670000000 cycles: 815525786 heartbeat IPC: 0.8067 cumulative IPC: 0.820725 (Simulation time: 1 hr 50 min 53 sec) 
Heartbeat CPU 0 instructions: 680000002 cycles: 828089673 heartbeat IPC: 0.795932 cumulative IPC: 0.820349 (Simulation time: 1 hr 52 min 27 sec) 
Heartbeat CPU 0 instructions: 690000003 cycles: 840548381 heartbeat IPC: 0.802652 cumulative IPC: 0.820086 (Simulation time: 1 hr 54 min 1 sec) 
Heartbeat CPU 0 instructions: 700000001 cycles: 853101492 heartbeat IPC: 0.796615 cumulative IPC: 0.819741 (Simulation time: 1 hr 55 min 32 sec) 
Heartbeat CPU 0 instructions: 710000004 cycles: 865866541 heartbeat IPC: 0.783389 cumulative IPC: 0.819205 (Simulation time: 1 hr 57 min 4 sec) 
Heartbeat CPU 0 instructions: 720000002 cycles: 878298762 heartbeat IPC: 0.804361 cumulative IPC: 0.818994 (Simulation time: 1 hr 58 min 40 sec) 
Heartbeat CPU 0 instructions: 730000000 cycles: 890624839 heartbeat IPC: 0.811288 cumulative IPC: 0.818888 (Simulation time: 2 hr 0 min 8 sec) 
Heartbeat CPU 0 instructions: 740000004 cycles: 903052996 heartbeat IPC: 0.804625 cumulative IPC: 0.818691 (Simulation time: 2 hr 1 min 37 sec) 
Heartbeat CPU 0 instructions: 750000000 cycles: 915524861 heartbeat IPC: 0.801804 cumulative IPC: 0.818461 (Simulation time: 2 hr 3 min 0 sec) 
Heartbeat CPU 0 instructions: 760000000 cycles: 928131444 heartbeat IPC: 0.793236 cumulative IPC: 0.818119 (Simulation time: 2 hr 4 min 19 sec) 
Heartbeat CPU 0 instructions: 770000000 cycles: 940727447 heartbeat IPC: 0.793903 cumulative IPC: 0.817794 (Simulation time: 2 hr 5 min 40 sec) 
Heartbeat CPU 0 instructions: 780000003 cycles: 953194146 heartbeat IPC: 0.802137 cumulative IPC: 0.817589 (Simulation time: 2 hr 7 min 8 sec) 
Heartbeat CPU 0 instructions: 790000000 cycles: 965562913 heartbeat IPC: 0.808488 cumulative IPC: 0.817473 (Simulation time: 2 hr 8 min 41 sec) 
Heartbeat CPU 0 instructions: 800000004 cycles: 978224432 heartbeat IPC: 0.789795 cumulative IPC: 0.817114 (Simulation time: 2 hr 10 min 7 sec) 
Heartbeat CPU 0 instructions: 810000001 cycles: 990704213 heartbeat IPC: 0.801296 cumulative IPC: 0.816915 (Simulation time: 2 hr 11 min 39 sec) 
Heartbeat CPU 0 instructions: 820000000 cycles: 1003117902 heartbeat IPC: 0.805562 cumulative IPC: 0.816774 (Simulation time: 2 hr 13 min 10 sec) 
Heartbeat CPU 0 instructions: 830000004 cycles: 1015574499 heartbeat IPC: 0.802788 cumulative IPC: 0.816603 (Simulation time: 2 hr 14 min 47 sec) 
Heartbeat CPU 0 instructions: 840000000 cycles: 1028129633 heartbeat IPC: 0.796487 cumulative IPC: 0.816357 (Simulation time: 2 hr 16 min 21 sec) 
Heartbeat CPU 0 instructions: 850000000 cycles: 1040838780 heartbeat IPC: 0.786835 cumulative IPC: 0.815996 (Simulation time: 2 hr 17 min 57 sec) 
Heartbeat CPU 0 instructions: 860000004 cycles: 1053301631 heartbeat IPC: 0.802385 cumulative IPC: 0.815835 (Simulation time: 2 hr 19 min 29 sec) 
Heartbeat CPU 0 instructions: 870000000 cycles: 1065674473 heartbeat IPC: 0.808221 cumulative IPC: 0.815747 (Simulation time: 2 hr 21 min 6 sec) 
Heartbeat CPU 0 instructions: 880000004 cycles: 1078193230 heartbeat IPC: 0.798802 cumulative IPC: 0.81555 (Simulation time: 2 hr 22 min 45 sec) 
Heartbeat CPU 0 instructions: 890000003 cycles: 1090619240 heartbeat IPC: 0.804763 cumulative IPC: 0.815427 (Simulation time: 2 hr 24 min 23 sec) 
Heartbeat CPU 0 instructions: 900000003 cycles: 1103457842 heartbeat IPC: 0.778901 cumulative IPC: 0.815002 (Simulation time: 2 hr 26 min 7 sec) 
Heartbeat CPU 0 instructions: 910000000 cycles: 1115853625 heartbeat IPC: 0.806726 cumulative IPC: 0.81491 (Simulation time: 2 hr 27 min 51 sec) 
Heartbeat CPU 0 instructions: 920000000 cycles: 1128363036 heartbeat IPC: 0.799398 cumulative IPC: 0.814738 (Simulation time: 2 hr 29 min 36 sec) 
Heartbeat CPU 0 instructions: 930000003 cycles: 1140765598 heartbeat IPC: 0.806285 cumulative IPC: 0.814646 (Simulation time: 2 hr 31 min 15 sec) 
Heartbeat CPU 0 instructions: 940000004 cycles: 1153104358 heartbeat IPC: 0.810454 cumulative IPC: 0.814601 (Simulation time: 2 hr 32 min 54 sec) 
Heartbeat CPU 0 instructions: 950000003 cycles: 1165596181 heartbeat IPC: 0.800524 cumulative IPC: 0.81445 (Simulation time: 2 hr 34 min 30 sec) 
Heartbeat CPU 0 instructions: 960000002 cycles: 1178079931 heartbeat IPC: 0.801041 cumulative IPC: 0.814308 (Simulation time: 2 hr 36 min 6 sec) 
Heartbeat CPU 0 instructions: 970000000 cycles: 1190459825 heartbeat IPC: 0.807761 cumulative IPC: 0.81424 (Simulation time: 2 hr 37 min 41 sec) 
Heartbeat CPU 0 instructions: 980000001 cycles: 1202942603 heartbeat IPC: 0.801104 cumulative IPC: 0.814104 (Simulation time: 2 hr 39 min 14 sec) 
Heartbeat CPU 0 instructions: 990000004 cycles: 1215916459 heartbeat IPC: 0.770781 cumulative IPC: 0.813641 (Simulation time: 2 hr 40 min 48 sec) 
Heartbeat CPU 0 instructions: 1000000003 cycles: 1228377728 heartbeat IPC: 0.802486 cumulative IPC: 0.813528 (Simulation time: 2 hr 42 min 20 sec) 
Finished CPU 0 instructions: 1000000004 cycles: 1229234702 cumulative IPC: 0.813514 (Simulation time: 2 hr 42 min 30 sec) 

ChampSim completed all CPUs

Region of Interest Statistics

CPU 0 cumulative IPC: 0.813514 instructions: 1000000004 cycles: 1229234702
cpu0_DTLB TOTAL     ACCESS:  202516108  HIT:  129001349  MISS:   73514759
cpu0_DTLB LOAD      ACCESS:  148253547  HIT:   81829364  MISS:   66424183
cpu0_DTLB RFO       ACCESS:   54262561  HIT:   47171985  MISS:    7090576
cpu0_DTLB PREFETCH  ACCESS:          0  HIT:          0  MISS:          0
cpu0_DTLB WRITEBACK ACCESS:          0  HIT:          0  MISS:          0
cpu0_DTLB TRANSLATION ACCESS:          0  HIT:          0  MISS:          0
cpu0_DTLB PREFETCH  REQUESTED:          0  ISSUED:          0  USEFUL:          0  USELESS:          0
cpu0_DTLB AVERAGE MISS LATENCY: 9.83537 cycles
cpu0_ITLB TOTAL     ACCESS:   18314839  HIT:   18314779  MISS:         60
cpu0_ITLB LOAD      ACCESS:   18314839  HIT:   18314779  MISS:         60
cpu0_ITLB RFO       ACCESS:          0  HIT:          0  MISS:          0
cpu0_ITLB PREFETCH  ACCESS:          0  HIT:          0  MISS:          0
cpu0_ITLB WRITEBACK ACCESS:          0  HIT:          0  MISS:          0
cpu0_ITLB TRANSLATION ACCESS:          0  HIT:          0  MISS:          0
cpu0_ITLB PREFETCH  REQUESTED:          0  ISSUED:          0  USEFUL:          0  USELESS:          0
cpu0_ITLB AVERAGE MISS LATENCY: 271.283 cycles
cpu0_L1I TOTAL     ACCESS:  101081361  HIT:  100689600  MISS:     391761
cpu0_L1I LOAD      ACCESS:  101081361  HIT:  100689600  MISS:     391761
cpu0_L1I RFO       ACCESS:          0  HIT:          0  MISS:          0
cpu0_L1I PREFETCH  ACCESS:          0  HIT:          0  MISS:          0
cpu0_L1I WRITEBACK ACCESS:          0  HIT:          0  MISS:          0
cpu0_L1I TRANSLATION ACCESS:          0  HIT:          0  MISS:          0
cpu0_L1I PREFETCH  REQUESTED:          0  ISSUED:          0  USEFUL:          0  USELESS:          0
cpu0_L1I AVERAGE MISS LATENCY: 15.154 cycles
cpu0_STLB TOTAL     ACCESS:   73514819  HIT:   73396684  MISS:     118135
cpu0_STLB LOAD      ACCESS:   66424243  HIT:   66306587  MISS:     117656
cpu0_STLB RFO       ACCESS:    7090576  HIT:    7090097  MISS:        479
cpu0_STLB PREFETCH  ACCESS:          0  HIT:          0  MISS:          0
cpu0_STLB WRITEBACK ACCESS:          0  HIT:          0  MISS:          0
cpu0_STLB TRANSLATION ACCESS:          0  HIT:          0  MISS:          0
cpu0_STLB PREFETCH  REQUESTED:          0  ISSUED:          0  USEFUL:          0  USELESS:          0
cpu0_STLB AVERAGE MISS LATENCY: 308.138 cycles
cpu0_L1D TOTAL     ACCESS:  381995584  HIT:  243307261  MISS:  138688323
cpu0_L1D LOAD      ACCESS:  182126983  HIT:   76778863  MISS:  105348120
cpu0_L1D RFO       ACCESS:  110990258  HIT:  102920624  MISS:    8069634
cpu0_L1D PREFETCH  ACCESS:   88761630  HIT:   63598116  MISS:   25163514
cpu0_L1D WRITEBACK ACCESS:          0  HIT:          0  MISS:          0
cpu0_L1D TRANSLATION ACCESS:     116713  HIT:       9658  MISS:     107055
cpu0_L1D PREFETCH  REQUESTED:  186982029  ISSUED:   90820956  USEFUL:    2422735  USELESS:   22883688
cpu0_L1D AVERAGE MISS LATENCY: 61.4823 cycles
cpu0_L2C TOTAL     ACCESS:  145497465  HIT:   98659041  MISS:   46838424
cpu0_L2C LOAD      ACCESS:  104898545  HIT:   74291357  MISS:   30607188
cpu0_L2C RFO       ACCESS:    8045277  HIT:    3277796  MISS:    4767481
cpu0_L2C PREFETCH  ACCESS:   25831306  HIT:   14439901  MISS:   11391405
cpu0_L2C WRITEBACK ACCESS:    6615282  HIT:    6610206  MISS:       5076
cpu0_L2C TRANSLATION ACCESS:     107055  HIT:      39781  MISS:      67274
cpu0_L2C PREFETCH  REQUESTED:     533652  ISSUED:     533652  USEFUL:      48793  USELESS:      31724
cpu0_L2C AVERAGE MISS LATENCY: 144.046 cycles
LLC TOTAL     ACCESS:   49568764  HIT:   42028058  MISS:    7540706
LLC LOAD      ACCESS:   30603129  HIT:   26761249  MISS:    3841880
LLC RFO       ACCESS:    4597273  HIT:    4567145  MISS:      30128
LLC PREFETCH  ACCESS:   11394360  HIT:    7727094  MISS:    3667266
LLC WRITEBACK ACCESS:    2906728  HIT:    2905557  MISS:       1171
LLC TRANSLATION ACCESS:      67274  HIT:      67013  MISS:        261
LLC PREFETCH  REQUESTED:          0  ISSUED:          0  USEFUL:          0  USELESS:          0
LLC AVERAGE MISS LATENCY: 727.847 cycles

DRAM Statistics
 CHANNEL 0
 RQ ROW_BUFFER_HIT:        909  ROW_BUFFER_MISS:    7538625
 DBUS AVG_CONGESTED_CYCLE:    3.96914
 WQ ROW_BUFFER_HIT:      63114  ROW_BUFFER_MISS:     868453  FULL:          0


CPU 0 Branch Prediction Accuracy: 99.5942% MPKI: 0.006523 Average ROB Occupancy at Mispredict: 81.1978
Branch type MPKI
BRANCH_DIRECT_JUMP: 5.6e-05
BRANCH_INDIRECT: 8.7e-05
BRANCH_CONDITIONAL: 0.005219
BRANCH_DIRECT_CALL: 0.000659
BRANCH_INDIRECT_CALL: 3e-06
BRANCH_RETURN: 0.000499

