
*** ChampSim Multicore Out-of-Order Simulator ***

Warmup Instructions: 1000000
Simulation Instructions: 1000000000
Number of CPUs: 1
Off-chip DRAM Size: 4 GiB Channels: 1 Width: 64-bit Data Rate: 3200 MT/s

VirtualMemory physical capacity: 8588881920 num_ppages: 2096895
VirtualMemory page size: 4096 log2_page_size: 12

CPU 0 runs tracer/pin/traces/spec2k6/437.leslie3d-273B.champsimtrace.xz
Basic BTB sets: 1024 ways: 8 indirect buffer size: 4096 RAS size: 64
cpu0_L1D next line prefetcher
cpu0_L2C IP-based stride prefetcher
WARNING: The extended signature CACHE::prefetch_line(ip, base_addr, pf_addr, fill_this_level, prefetch_metadata) is deprecated.
WARNING: Use CACHE::prefetch_line(pf_addr, fill_this_level, prefetch_metadata) instead.

Warmup complete CPU 0 instructions: 1000004 cycles: 379297 (Simulation time: 0 hr 0 min 5 sec) 

Heartbeat CPU 0 instructions: 10000004 cycles: 9630701 heartbeat IPC: 1.03835 cumulative IPC: 0.972825 (Simulation time: 0 hr 1 min 27 sec) 
Heartbeat CPU 0 instructions: 20000004 cycles: 20368647 heartbeat IPC: 0.931277 cumulative IPC: 0.950506 (Simulation time: 0 hr 2 min 59 sec) 
Heartbeat CPU 0 instructions: 30000002 cycles: 32102959 heartbeat IPC: 0.852201 cumulative IPC: 0.914144 (Simulation time: 0 hr 4 min 31 sec) 
Heartbeat CPU 0 instructions: 40000000 cycles: 43647355 heartbeat IPC: 0.866221 cumulative IPC: 0.901358 (Simulation time: 0 hr 6 min 9 sec) 
Heartbeat CPU 0 instructions: 50000000 cycles: 55168019 heartbeat IPC: 0.868006 cumulative IPC: 0.894345 (Simulation time: 0 hr 7 min 44 sec) 
Heartbeat CPU 0 instructions: 60000001 cycles: 66741832 heartbeat IPC: 0.86402 cumulative IPC: 0.889056 (Simulation time: 0 hr 9 min 7 sec) 
Heartbeat CPU 0 instructions: 70000001 cycles: 78438767 heartbeat IPC: 0.854925 cumulative IPC: 0.883941 (Simulation time: 0 hr 10 min 31 sec) 
Heartbeat CPU 0 instructions: 80000003 cycles: 90022861 heartbeat IPC: 0.863253 cumulative IPC: 0.881268 (Simulation time: 0 hr 11 min 49 sec) 
Heartbeat CPU 0 instructions: 90000000 cycles: 105002892 heartbeat IPC: 0.667555 cumulative IPC: 0.850668 (Simulation time: 0 hr 13 min 33 sec) 
Heartbeat CPU 0 instructions: 100000000 cycles: 119855233 heartbeat IPC: 0.673295 cumulative IPC: 0.828619 (Simulation time: 0 hr 15 min 26 sec) 
Heartbeat CPU 0 instructions: 110000003 cycles: 138473867 heartbeat IPC: 0.537097 cumulative IPC: 0.789314 (Simulation time: 0 hr 17 min 35 sec) 
Heartbeat CPU 0 instructions: 120000000 cycles: 157823935 heartbeat IPC: 0.516794 cumulative IPC: 0.755821 (Simulation time: 0 hr 20 min 2 sec) 
Heartbeat CPU 0 instructions: 130000002 cycles: 176742617 heartbeat IPC: 0.528578 cumulative IPC: 0.731445 (Simulation time: 0 hr 22 min 28 sec) 
Heartbeat CPU 0 instructions: 140000004 cycles: 195695310 heartbeat IPC: 0.52763 cumulative IPC: 0.711667 (Simulation time: 0 hr 24 min 57 sec) 
Heartbeat CPU 0 instructions: 150000002 cycles: 212183609 heartbeat IPC: 0.606491 cumulative IPC: 0.70348 (Simulation time: 0 hr 27 min 1 sec) 
Heartbeat CPU 0 instructions: 160000002 cycles: 224774920 heartbeat IPC: 0.794198 cumulative IPC: 0.70857 (Simulation time: 0 hr 28 min 48 sec) 
Heartbeat CPU 0 instructions: 170000002 cycles: 237432171 heartbeat IPC: 0.790061 cumulative IPC: 0.712921 (Simulation time: 0 hr 30 min 34 sec) 
Heartbeat CPU 0 instructions: 180000004 cycles: 249957828 heartbeat IPC: 0.798361 cumulative IPC: 0.717209 (Simulation time: 0 hr 32 min 24 sec) 
Heartbeat CPU 0 instructions: 190000002 cycles: 262568986 heartbeat IPC: 0.792948 cumulative IPC: 0.720852 (Simulation time: 0 hr 34 min 12 sec) 
Heartbeat CPU 0 instructions: 200000004 cycles: 275182506 heartbeat IPC: 0.7928 cumulative IPC: 0.724155 (Simulation time: 0 hr 35 min 56 sec) 
Heartbeat CPU 0 instructions: 210000000 cycles: 287744205 heartbeat IPC: 0.79607 cumulative IPC: 0.727298 (Simulation time: 0 hr 37 min 42 sec) 
Heartbeat CPU 0 instructions: 220000002 cycles: 300391170 heartbeat IPC: 0.790704 cumulative IPC: 0.729971 (Simulation time: 0 hr 39 min 32 sec) 
Heartbeat CPU 0 instructions: 230000000 cycles: 312997417 heartbeat IPC: 0.793257 cumulative IPC: 0.732523 (Simulation time: 0 hr 41 min 15 sec) 
Heartbeat CPU 0 instructions: 240000002 cycles: 325574137 heartbeat IPC: 0.79512 cumulative IPC: 0.734944 (Simulation time: 0 hr 43 min 5 sec) 
Heartbeat CPU 0 instructions: 250000001 cycles: 338108388 heartbeat IPC: 0.797814 cumulative IPC: 0.737277 (Simulation time: 0 hr 44 min 52 sec) 
Heartbeat CPU 0 instructions: 260000000 cycles: 350649903 heartbeat IPC: 0.797352 cumulative IPC: 0.739428 (Simulation time: 0 hr 46 min 32 sec) 
Heartbeat CPU 0 instructions: 270000003 cycles: 363250496 heartbeat IPC: 0.793614 cumulative IPC: 0.74131 (Simulation time: 0 hr 48 min 7 sec) 
Heartbeat CPU 0 instructions: 280000000 cycles: 375792197 heartbeat IPC: 0.79734 cumulative IPC: 0.743182 (Simulation time: 0 hr 49 min 41 sec) 
Heartbeat CPU 0 instructions: 290000002 cycles: 388281794 heartbeat IPC: 0.800667 cumulative IPC: 0.745033 (Simulation time: 0 hr 51 min 17 sec) 
Heartbeat CPU 0 instructions: 300000001 cycles: 399639490 heartbeat IPC: 0.88046 cumulative IPC: 0.748885 (Simulation time: 0 hr 52 min 43 sec) 
Heartbeat CPU 0 instructions: 310000000 cycles: 410199503 heartbeat IPC: 0.946968 cumulative IPC: 0.753989 (Simulation time: 0 hr 54 min 1 sec) 
Heartbeat CPU 0 instructions: 320000004 cycles: 420898857 heartbeat IPC: 0.934636 cumulative IPC: 0.758585 (Simulation time: 0 hr 55 min 20 sec) 
Heartbeat CPU 0 instructions: 330000003 cycles: 431526224 heartbeat IPC: 0.940967 cumulative IPC: 0.763081 (Simulation time: 0 hr 56 min 35 sec) 
Heartbeat CPU 0 instructions: 340000003 cycles: 442234249 heartbeat IPC: 0.933879 cumulative IPC: 0.76722 (Simulation time: 0 hr 57 min 53 sec) 
Heartbeat CPU 0 instructions: 350000001 cycles: 454742909 heartbeat IPC: 0.799446 cumulative IPC: 0.768107 (Simulation time: 0 hr 59 min 18 sec) 
Heartbeat CPU 0 instructions: 360000002 cycles: 469682131 heartbeat IPC: 0.669379 cumulative IPC: 0.764964 (Simulation time: 1 hr 0 min 53 sec) 
Heartbeat CPU 0 instructions: 370000000 cycles: 488611983 heartbeat IPC: 0.528266 cumulative IPC: 0.755787 (Simulation time: 1 hr 2 min 51 sec) 
Heartbeat CPU 0 instructions: 380000001 cycles: 507795308 heartbeat IPC: 0.521286 cumulative IPC: 0.746922 (Simulation time: 1 hr 4 min 53 sec) 
Heartbeat CPU 0 instructions: 390000002 cycles: 526624407 heartbeat IPC: 0.531093 cumulative IPC: 0.739199 (Simulation time: 1 hr 6 min 54 sec) 
Heartbeat CPU 0 instructions: 400000002 cycles: 544178817 heartbeat IPC: 0.569657 cumulative IPC: 0.733726 (Simulation time: 1 hr 8 min 42 sec) 
Heartbeat CPU 0 instructions: 410000002 cycles: 553605256 heartbeat IPC: 1.06085 cumulative IPC: 0.7393 (Simulation time: 1 hr 9 min 52 sec) 
Heartbeat CPU 0 instructions: 420000003 cycles: 562861288 heartbeat IPC: 1.08038 cumulative IPC: 0.744913 (Simulation time: 1 hr 11 min 0 sec) 
Heartbeat CPU 0 instructions: 430000004 cycles: 572123723 heartbeat IPC: 1.07963 cumulative IPC: 0.750335 (Simulation time: 1 hr 12 min 8 sec) 
Heartbeat CPU 0 instructions: 440000002 cycles: 581290710 heartbeat IPC: 1.09087 cumulative IPC: 0.755709 (Simulation time: 1 hr 13 min 17 sec) 
Heartbeat CPU 0 instructions: 450000001 cycles: 590491676 heartbeat IPC: 1.08684 cumulative IPC: 0.760872 (Simulation time: 1 hr 14 min 19 sec) 
Heartbeat CPU 0 instructions: 460000004 cycles: 599792483 heartbeat IPC: 1.07518 cumulative IPC: 0.765749 (Simulation time: 1 hr 15 min 20 sec) 
Heartbeat CPU 0 instructions: 470000002 cycles: 609112386 heartbeat IPC: 1.07297 cumulative IPC: 0.770453 (Simulation time: 1 hr 16 min 20 sec) 
Heartbeat CPU 0 instructions: 480000002 cycles: 618368211 heartbeat IPC: 1.0804 cumulative IPC: 0.775095 (Simulation time: 1 hr 17 min 19 sec) 
Heartbeat CPU 0 instructions: 490000000 cycles: 627489226 heartbeat IPC: 1.09637 cumulative IPC: 0.779768 (Simulation time: 1 hr 18 min 15 sec) 
Heartbeat CPU 0 instructions: 500000001 cycles: 636687975 heartbeat IPC: 1.0871 cumulative IPC: 0.784211 (Simulation time: 1 hr 19 min 9 sec) 
Heartbeat CPU 0 instructions: 510000000 cycles: 645894288 heartbeat IPC: 1.08621 cumulative IPC: 0.788518 (Simulation time: 1 hr 20 min 3 sec) 
Heartbeat CPU 0 instructions: 520000004 cycles: 655170014 heartbeat IPC: 1.07808 cumulative IPC: 0.79262 (Simulation time: 1 hr 20 min 59 sec) 
Heartbeat CPU 0 instructions: 530000001 cycles: 664417910 heartbeat IPC: 1.08133 cumulative IPC: 0.79664 (Simulation time: 1 hr 21 min 53 sec) 
Heartbeat CPU 0 instructions: 540000000 cycles: 673610318 heartbeat IPC: 1.08785 cumulative IPC: 0.800617 (Simulation time: 1 hr 22 min 46 sec) 
Heartbeat CPU 0 instructions: 550000000 cycles: 682854562 heartbeat IPC: 1.08175 cumulative IPC: 0.804425 (Simulation time: 1 hr 23 min 39 sec) 
Heartbeat CPU 0 instructions: 560000004 cycles: 704426845 heartbeat IPC: 0.463558 cumulative IPC: 0.79398 (Simulation time: 1 hr 25 min 6 sec) 
Heartbeat CPU 0 instructions: 570000000 cycles: 729932599 heartbeat IPC: 0.392068 cumulative IPC: 0.779929 (Simulation time: 1 hr 26 min 43 sec) 
Heartbeat CPU 0 instructions: 580000004 cycles: 755322276 heartbeat IPC: 0.393861 cumulative IPC: 0.766945 (Simulation time: 1 hr 28 min 21 sec) 
Heartbeat CPU 0 instructions: 590000000 cycles: 780753198 heartbeat IPC: 0.393222 cumulative IPC: 0.754766 (Simulation time: 1 hr 29 min 57 sec) 
Heartbeat CPU 0 instructions: 600000004 cycles: 823611112 heartbeat IPC: 0.233329 cumulative IPC: 0.72762 (Simulation time: 1 hr 32 min 26 sec) 
Heartbeat CPU 0 instructions: 610000002 cycles: 851744849 heartbeat IPC: 0.355445 cumulative IPC: 0.715321 (Simulation time: 1 hr 34 min 19 sec) 
Heartbeat CPU 0 instructions: 620000001 cycles: 866340736 heartbeat IPC: 0.685124 cumulative IPC: 0.714812 (Simulation time: 1 hr 35 min 26 sec) 
Heartbeat CPU 0 instructions: 630000004 cycles: 874553846 heartbeat IPC: 1.21757 cumulative IPC: 0.719536 (Simulation time: 1 hr 36 min 13 sec) 
Heartbeat CPU 0 instructions: 640000002 cycles: 882800660 heartbeat IPC: 1.21259 cumulative IPC: 0.724144 (Simulation time: 1 hr 37 min 0 sec) 
Heartbeat CPU 0 instructions: 650000003 cycles: 891002880 heartbeat IPC: 1.21918 cumulative IPC: 0.728703 (Simulation time: 1 hr 37 min 46 sec) 
Heartbeat CPU 0 instructions: 660000000 cycles: 899228982 heartbeat IPC: 1.21564 cumulative IPC: 0.733159 (Simulation time: 1 hr 38 min 33 sec) 
Heartbeat CPU 0 instructions: 670000002 cycles: 907441532 heartbeat IPC: 1.21765 cumulative IPC: 0.737546 (Simulation time: 1 hr 39 min 20 sec) 
Heartbeat CPU 0 instructions: 680000000 cycles: 915661418 heartbeat IPC: 1.21656 cumulative IPC: 0.741848 (Simulation time: 1 hr 40 min 6 sec) 
Heartbeat CPU 0 instructions: 690000000 cycles: 929201869 heartbeat IPC: 0.738528 cumulative IPC: 0.741799 (Simulation time: 1 hr 41 min 8 sec) 
Heartbeat CPU 0 instructions: 700000004 cycles: 944251207 heartbeat IPC: 0.664481 cumulative IPC: 0.740567 (Simulation time: 1 hr 42 min 14 sec) 
Heartbeat CPU 0 instructions: 710000000 cycles: 962143018 heartbeat IPC: 0.558915 cumulative IPC: 0.737187 (Simulation time: 1 hr 43 min 29 sec) 
Heartbeat CPU 0 instructions: 720000004 cycles: 981474735 heartbeat IPC: 0.517285 cumulative IPC: 0.732854 (Simulation time: 1 hr 44 min 53 sec) 
Heartbeat CPU 0 instructions: 730000003 cycles: 1000217812 heartbeat IPC: 0.53353 cumulative IPC: 0.729118 (Simulation time: 1 hr 46 min 16 sec) 
Heartbeat CPU 0 instructions: 740000003 cycles: 1018886597 heartbeat IPC: 0.535653 cumulative IPC: 0.725572 (Simulation time: 1 hr 47 min 39 sec) 
Heartbeat CPU 0 instructions: 750000000 cycles: 1035833584 heartbeat IPC: 0.590075 cumulative IPC: 0.723354 (Simulation time: 1 hr 48 min 55 sec) 
Heartbeat CPU 0 instructions: 760000000 cycles: 1047158909 heartbeat IPC: 0.882977 cumulative IPC: 0.725081 (Simulation time: 1 hr 49 min 52 sec) 
Heartbeat CPU 0 instructions: 770000002 cycles: 1058279271 heartbeat IPC: 0.899251 cumulative IPC: 0.726912 (Simulation time: 1 hr 50 min 49 sec) 
Heartbeat CPU 0 instructions: 780000001 cycles: 1069470975 heartbeat IPC: 0.893519 cumulative IPC: 0.728656 (Simulation time: 1 hr 51 min 46 sec) 
Heartbeat CPU 0 instructions: 790000003 cycles: 1080574275 heartbeat IPC: 0.900633 cumulative IPC: 0.730424 (Simulation time: 1 hr 52 min 42 sec) 
Heartbeat CPU 0 instructions: 800000004 cycles: 1091735487 heartbeat IPC: 0.89596 cumulative IPC: 0.732117 (Simulation time: 1 hr 53 min 39 sec) 
Heartbeat CPU 0 instructions: 810000004 cycles: 1102801936 heartbeat IPC: 0.903632 cumulative IPC: 0.733838 (Simulation time: 1 hr 54 min 35 sec) 
Heartbeat CPU 0 instructions: 820000003 cycles: 1113963748 heartbeat IPC: 0.895912 cumulative IPC: 0.735463 (Simulation time: 1 hr 55 min 32 sec) 
Heartbeat CPU 0 instructions: 830000001 cycles: 1125062205 heartbeat IPC: 0.901026 cumulative IPC: 0.737097 (Simulation time: 1 hr 56 min 28 sec) 
Heartbeat CPU 0 instructions: 840000000 cycles: 1136274091 heartbeat IPC: 0.89191 cumulative IPC: 0.738625 (Simulation time: 1 hr 57 min 25 sec) 
Heartbeat CPU 0 instructions: 850000003 cycles: 1147366114 heartbeat IPC: 0.901549 cumulative IPC: 0.7402 (Simulation time: 1 hr 58 min 22 sec) 
Heartbeat CPU 0 instructions: 860000003 cycles: 1158605547 heartbeat IPC: 0.889725 cumulative IPC: 0.741651 (Simulation time: 1 hr 59 min 19 sec) 
Heartbeat CPU 0 instructions: 870000002 cycles: 1169733884 heartbeat IPC: 0.898607 cumulative IPC: 0.743145 (Simulation time: 2 hr 0 min 15 sec) 
Heartbeat CPU 0 instructions: 880000003 cycles: 1180905885 heartbeat IPC: 0.895095 cumulative IPC: 0.744583 (Simulation time: 2 hr 1 min 12 sec) 
Heartbeat CPU 0 instructions: 890000004 cycles: 1192119098 heartbeat IPC: 0.891805 cumulative IPC: 0.745968 (Simulation time: 2 hr 2 min 9 sec) 
Heartbeat CPU 0 instructions: 900000000 cycles: 1203294598 heartbeat IPC: 0.894814 cumulative IPC: 0.747351 (Simulation time: 2 hr 3 min 4 sec) 
Heartbeat CPU 0 instructions: 910000003 cycles: 1214784709 heartbeat IPC: 0.870314 cumulative IPC: 0.748514 (Simulation time: 2 hr 4 min 0 sec) 
Heartbeat CPU 0 instructions: 920000001 cycles: 1226309011 heartbeat IPC: 0.867731 cumulative IPC: 0.749635 (Simulation time: 2 hr 4 min 55 sec) 
Heartbeat CPU 0 instructions: 930000003 cycles: 1237756489 heartbeat IPC: 0.873555 cumulative IPC: 0.750782 (Simulation time: 2 hr 5 min 51 sec) 
Heartbeat CPU 0 instructions: 940000004 cycles: 1249187299 heartbeat IPC: 0.874829 cumulative IPC: 0.751917 (Simulation time: 2 hr 6 min 47 sec) 
Heartbeat CPU 0 instructions: 950000000 cycles: 1260699427 heartbeat IPC: 0.868649 cumulative IPC: 0.752983 (Simulation time: 2 hr 7 min 42 sec) 
Heartbeat CPU 0 instructions: 960000000 cycles: 1273773156 heartbeat IPC: 0.764893 cumulative IPC: 0.753106 (Simulation time: 2 hr 8 min 43 sec) 
Heartbeat CPU 0 instructions: 970000000 cycles: 1288855797 heartbeat IPC: 0.663014 cumulative IPC: 0.752051 (Simulation time: 2 hr 9 min 49 sec) 
Heartbeat CPU 0 instructions: 980000001 cycles: 1305448856 heartbeat IPC: 0.602662 cumulative IPC: 0.750152 (Simulation time: 2 hr 11 min 0 sec) 
Heartbeat CPU 0 instructions: 990000004 cycles: 1324959280 heartbeat IPC: 0.512547 cumulative IPC: 0.746652 (Simulation time: 2 hr 12 min 23 sec) 
Heartbeat CPU 0 instructions: 1000000001 cycles: 1343876040 heartbeat IPC: 0.528632 cumulative IPC: 0.743582 (Simulation time: 2 hr 13 min 46 sec) 
Finished CPU 0 instructions: 1000000002 cycles: 1345400804 cumulative IPC: 0.743273 (Simulation time: 2 hr 13 min 54 sec) 

ChampSim completed all CPUs

Region of Interest Statistics

CPU 0 cumulative IPC: 0.743273 instructions: 1000000002 cycles: 1345400804
cpu0_DTLB TOTAL     ACCESS:  239219655  HIT:  238999494  MISS:     220161
cpu0_DTLB LOAD      ACCESS:  215193151  HIT:  215019999  MISS:     173152
cpu0_DTLB RFO       ACCESS:   24026504  HIT:   23979495  MISS:      47009
cpu0_DTLB PREFETCH  ACCESS:          0  HIT:          0  MISS:          0
cpu0_DTLB WRITEBACK ACCESS:          0  HIT:          0  MISS:          0
cpu0_DTLB TRANSLATION ACCESS:          0  HIT:          0  MISS:          0
cpu0_DTLB PREFETCH  REQUESTED:          0  ISSUED:          0  USEFUL:          0  USELESS:          0
cpu0_DTLB AVERAGE MISS LATENCY: 49.7782 cycles
cpu0_ITLB TOTAL     ACCESS:    7649583  HIT:    7649567  MISS:         16
cpu0_ITLB LOAD      ACCESS:    7649583  HIT:    7649567  MISS:         16
cpu0_ITLB RFO       ACCESS:          0  HIT:          0  MISS:          0
cpu0_ITLB PREFETCH  ACCESS:          0  HIT:          0  MISS:          0
cpu0_ITLB WRITEBACK ACCESS:          0  HIT:          0  MISS:          0
cpu0_ITLB TRANSLATION ACCESS:          0  HIT:          0  MISS:          0
cpu0_ITLB PREFETCH  REQUESTED:          0  ISSUED:          0  USEFUL:          0  USELESS:          0
cpu0_ITLB AVERAGE MISS LATENCY: 572.062 cycles
cpu0_L1I TOTAL     ACCESS:   21535983  HIT:   21535313  MISS:        670
cpu0_L1I LOAD      ACCESS:   21535983  HIT:   21535313  MISS:        670
cpu0_L1I RFO       ACCESS:          0  HIT:          0  MISS:          0
cpu0_L1I PREFETCH  ACCESS:          0  HIT:          0  MISS:          0
cpu0_L1I WRITEBACK ACCESS:          0  HIT:          0  MISS:          0
cpu0_L1I TRANSLATION ACCESS:          0  HIT:          0  MISS:          0
cpu0_L1I PREFETCH  REQUESTED:          0  ISSUED:          0  USEFUL:          0  USELESS:          0
cpu0_L1I AVERAGE MISS LATENCY: 678.888 cycles
cpu0_STLB TOTAL     ACCESS:     220177  HIT:     111314  MISS:     108863
cpu0_STLB LOAD      ACCESS:     173168  HIT:      96283  MISS:      76885
cpu0_STLB RFO       ACCESS:      47009  HIT:      15031  MISS:      31978
cpu0_STLB PREFETCH  ACCESS:          0  HIT:          0  MISS:          0
cpu0_STLB WRITEBACK ACCESS:          0  HIT:          0  MISS:          0
cpu0_STLB TRANSLATION ACCESS:          0  HIT:          0  MISS:          0
cpu0_STLB PREFETCH  REQUESTED:          0  ISSUED:          0  USEFUL:          0  USELESS:          0
cpu0_STLB AVERAGE MISS LATENCY: 82.5195 cycles
cpu0_L1D TOTAL     ACCESS:  502557015  HIT:  490123318  MISS:   12433697
cpu0_L1D LOAD      ACCESS:  272571900  HIT:  267997399  MISS:    4574501
cpu0_L1D RFO       ACCESS:   21637750  HIT:   18887897  MISS:    2749853
cpu0_L1D PREFETCH  ACCESS:  208246006  HIT:  203155579  MISS:    5090427
cpu0_L1D WRITEBACK ACCESS:          0  HIT:          0  MISS:          0
cpu0_L1D TRANSLATION ACCESS:     101359  HIT:      82443  MISS:      18916
cpu0_L1D PREFETCH  REQUESTED:  277109690  ISSUED:  232521302  USEFUL:    7994626  USELESS:     358890
cpu0_L1D AVERAGE MISS LATENCY: 271.018 cycles
cpu0_L2C TOTAL     ACCESS:   19295531  HIT:   11054960  MISS:    8240571
cpu0_L2C LOAD      ACCESS:    1390080  HIT:    1137933  MISS:     252147
cpu0_L2C RFO       ACCESS:    2669505  HIT:     871139  MISS:    1798366
cpu0_L2C PREFETCH  ACCESS:   11640894  HIT:    5454123  MISS:    6186771
cpu0_L2C WRITEBACK ACCESS:    3576136  HIT:    3573497  MISS:       2639
cpu0_L2C TRANSLATION ACCESS:      18916  HIT:      18268  MISS:        648
cpu0_L2C PREFETCH  REQUESTED:    3389235  ISSUED:    3388343  USEFUL:     121087  USELESS:      42167
cpu0_L2C AVERAGE MISS LATENCY: 739.649 cycles
LLC TOTAL     ACCESS:   10617965  HIT:    3434335  MISS:    7183630
LLC LOAD      ACCESS:     252144  HIT:      72150  MISS:     179994
LLC RFO       ACCESS:    1798357  HIT:     178077  MISS:    1620280
LLC PREFETCH  ACCESS:    6202190  HIT:     840676  MISS:    5361514
LLC WRITEBACK ACCESS:    2364626  HIT:    2342981  MISS:      21645
LLC TRANSLATION ACCESS:        648  HIT:        451  MISS:        197
LLC PREFETCH  REQUESTED:          0  ISSUED:          0  USEFUL:          0  USELESS:          0
LLC AVERAGE MISS LATENCY: 821.033 cycles

DRAM Statistics
 CHANNEL 0
 RQ ROW_BUFFER_HIT:     219989  ROW_BUFFER_MISS:    6941249
 DBUS AVG_CONGESTED_CYCLE:    3.97888
 WQ ROW_BUFFER_HIT:      54073  ROW_BUFFER_MISS:    2068617  FULL:          0


CPU 0 Branch Prediction Accuracy: 99.0134% MPKI: 0.246289 Average ROB Occupancy at Mispredict: 122.791
Branch type MPKI
BRANCH_DIRECT_JUMP: 5.5e-05
BRANCH_INDIRECT: 0
BRANCH_CONDITIONAL: 0.245999
BRANCH_DIRECT_CALL: 0.00012
BRANCH_INDIRECT_CALL: 0
BRANCH_RETURN: 0.000115

