
*** ChampSim Multicore Out-of-Order Simulator ***

Warmup Instructions: 1000000
Simulation Instructions: 1000000000
Number of CPUs: 1
Off-chip DRAM Size: 4 GiB Channels: 1 Width: 64-bit Data Rate: 3200 MT/s

VirtualMemory physical capacity: 8588881920 num_ppages: 2096895
VirtualMemory page size: 4096 log2_page_size: 12

CPU 0 runs tracer/pin/traces/spec2k17/631.deepsjeng_s-928B.champsimtrace.xz
Basic BTB sets: 1024 ways: 8 indirect buffer size: 4096 RAS size: 64
cpu0_L1D next line prefetcher
cpu0_L2C IP-based stride prefetcher
WARNING: The extended signature CACHE::prefetch_line(ip, base_addr, pf_addr, fill_this_level, prefetch_metadata) is deprecated.
WARNING: Use CACHE::prefetch_line(pf_addr, fill_this_level, prefetch_metadata) instead.

Warmup complete CPU 0 instructions: 1000001 cycles: 250362 (Simulation time: 0 hr 0 min 3 sec) 

Heartbeat CPU 0 instructions: 10000003 cycles: 6817166 heartbeat IPC: 1.46689 cumulative IPC: 1.37053 (Simulation time: 0 hr 0 min 45 sec) 
Heartbeat CPU 0 instructions: 20000001 cycles: 14128080 heartbeat IPC: 1.36782 cumulative IPC: 1.3691 (Simulation time: 0 hr 1 min 31 sec) 
Heartbeat CPU 0 instructions: 30000001 cycles: 21344078 heartbeat IPC: 1.38581 cumulative IPC: 1.37482 (Simulation time: 0 hr 2 min 17 sec) 
Heartbeat CPU 0 instructions: 40000004 cycles: 28512771 heartbeat IPC: 1.39495 cumulative IPC: 1.37992 (Simulation time: 0 hr 3 min 5 sec) 
Heartbeat CPU 0 instructions: 50000004 cycles: 35653136 heartbeat IPC: 1.40049 cumulative IPC: 1.38407 (Simulation time: 0 hr 3 min 54 sec) 
Heartbeat CPU 0 instructions: 60000000 cycles: 42917620 heartbeat IPC: 1.37656 cumulative IPC: 1.38279 (Simulation time: 0 hr 4 min 44 sec) 
Heartbeat CPU 0 instructions: 70000002 cycles: 50104094 heartbeat IPC: 1.3915 cumulative IPC: 1.38405 (Simulation time: 0 hr 5 min 32 sec) 
Heartbeat CPU 0 instructions: 80000002 cycles: 57402847 heartbeat IPC: 1.3701 cumulative IPC: 1.38227 (Simulation time: 0 hr 6 min 23 sec) 
Heartbeat CPU 0 instructions: 90000001 cycles: 64590723 heartbeat IPC: 1.39123 cumulative IPC: 1.38327 (Simulation time: 0 hr 7 min 14 sec) 
Heartbeat CPU 0 instructions: 100000004 cycles: 71813941 heartbeat IPC: 1.38442 cumulative IPC: 1.38339 (Simulation time: 0 hr 8 min 5 sec) 
Heartbeat CPU 0 instructions: 110000000 cycles: 79048485 heartbeat IPC: 1.38226 cumulative IPC: 1.38328 (Simulation time: 0 hr 8 min 56 sec) 
Heartbeat CPU 0 instructions: 120000001 cycles: 86134292 heartbeat IPC: 1.41127 cumulative IPC: 1.38559 (Simulation time: 0 hr 9 min 46 sec) 
Heartbeat CPU 0 instructions: 130000003 cycles: 93464044 heartbeat IPC: 1.3643 cumulative IPC: 1.38392 (Simulation time: 0 hr 10 min 38 sec) 
Heartbeat CPU 0 instructions: 140000000 cycles: 100640529 heartbeat IPC: 1.39344 cumulative IPC: 1.3846 (Simulation time: 0 hr 11 min 30 sec) 
Heartbeat CPU 0 instructions: 150000002 cycles: 107700700 heartbeat IPC: 1.4164 cumulative IPC: 1.38669 (Simulation time: 0 hr 12 min 21 sec) 
Heartbeat CPU 0 instructions: 160000003 cycles: 114943905 heartbeat IPC: 1.3806 cumulative IPC: 1.3863 (Simulation time: 0 hr 13 min 14 sec) 
Heartbeat CPU 0 instructions: 170000001 cycles: 122159980 heartbeat IPC: 1.38579 cumulative IPC: 1.38627 (Simulation time: 0 hr 14 min 5 sec) 
Heartbeat CPU 0 instructions: 180000004 cycles: 129376123 heartbeat IPC: 1.38578 cumulative IPC: 1.38625 (Simulation time: 0 hr 14 min 57 sec) 
Heartbeat CPU 0 instructions: 190000004 cycles: 136705329 heartbeat IPC: 1.3644 cumulative IPC: 1.38507 (Simulation time: 0 hr 15 min 50 sec) 
Heartbeat CPU 0 instructions: 200000001 cycles: 144080265 heartbeat IPC: 1.35594 cumulative IPC: 1.38358 (Simulation time: 0 hr 16 min 41 sec) 
Heartbeat CPU 0 instructions: 210000000 cycles: 151127060 heartbeat IPC: 1.41908 cumulative IPC: 1.38524 (Simulation time: 0 hr 17 min 32 sec) 
Heartbeat CPU 0 instructions: 220000003 cycles: 158389213 heartbeat IPC: 1.377 cumulative IPC: 1.38486 (Simulation time: 0 hr 18 min 23 sec) 
Heartbeat CPU 0 instructions: 230000000 cycles: 165744285 heartbeat IPC: 1.35961 cumulative IPC: 1.38374 (Simulation time: 0 hr 19 min 14 sec) 
Heartbeat CPU 0 instructions: 240000003 cycles: 172852700 heartbeat IPC: 1.40678 cumulative IPC: 1.38469 (Simulation time: 0 hr 20 min 6 sec) 
Heartbeat CPU 0 instructions: 250000000 cycles: 179938623 heartbeat IPC: 1.41125 cumulative IPC: 1.38573 (Simulation time: 0 hr 20 min 57 sec) 
Heartbeat CPU 0 instructions: 260000000 cycles: 187096606 heartbeat IPC: 1.39704 cumulative IPC: 1.38617 (Simulation time: 0 hr 21 min 48 sec) 
Heartbeat CPU 0 instructions: 270000002 cycles: 194202085 heartbeat IPC: 1.40736 cumulative IPC: 1.38694 (Simulation time: 0 hr 22 min 39 sec) 
Heartbeat CPU 0 instructions: 280000001 cycles: 201403308 heartbeat IPC: 1.38865 cumulative IPC: 1.387 (Simulation time: 0 hr 23 min 31 sec) 
Heartbeat CPU 0 instructions: 290000000 cycles: 208578763 heartbeat IPC: 1.39364 cumulative IPC: 1.38723 (Simulation time: 0 hr 24 min 24 sec) 
Heartbeat CPU 0 instructions: 300000002 cycles: 215697673 heartbeat IPC: 1.40471 cumulative IPC: 1.38781 (Simulation time: 0 hr 25 min 16 sec) 
Heartbeat CPU 0 instructions: 310000000 cycles: 222914525 heartbeat IPC: 1.38565 cumulative IPC: 1.38774 (Simulation time: 0 hr 26 min 7 sec) 
Heartbeat CPU 0 instructions: 320000000 cycles: 230038690 heartbeat IPC: 1.40367 cumulative IPC: 1.38823 (Simulation time: 0 hr 27 min 0 sec) 
Heartbeat CPU 0 instructions: 330000000 cycles: 237276612 heartbeat IPC: 1.38161 cumulative IPC: 1.38803 (Simulation time: 0 hr 27 min 52 sec) 
Heartbeat CPU 0 instructions: 340000004 cycles: 244318805 heartbeat IPC: 1.42001 cumulative IPC: 1.38895 (Simulation time: 0 hr 28 min 42 sec) 
Heartbeat CPU 0 instructions: 350000002 cycles: 251373119 heartbeat IPC: 1.41757 cumulative IPC: 1.38976 (Simulation time: 0 hr 29 min 33 sec) 
Heartbeat CPU 0 instructions: 360000000 cycles: 258384487 heartbeat IPC: 1.42625 cumulative IPC: 1.39075 (Simulation time: 0 hr 30 min 25 sec) 
Heartbeat CPU 0 instructions: 370000002 cycles: 265425062 heartbeat IPC: 1.42034 cumulative IPC: 1.39154 (Simulation time: 0 hr 31 min 16 sec) 
Heartbeat CPU 0 instructions: 380000000 cycles: 272427169 heartbeat IPC: 1.42814 cumulative IPC: 1.39248 (Simulation time: 0 hr 32 min 7 sec) 
Heartbeat CPU 0 instructions: 390000000 cycles: 279600791 heartbeat IPC: 1.394 cumulative IPC: 1.39252 (Simulation time: 0 hr 32 min 59 sec) 
Heartbeat CPU 0 instructions: 400000001 cycles: 286768528 heartbeat IPC: 1.39514 cumulative IPC: 1.39258 (Simulation time: 0 hr 33 min 49 sec) 
Heartbeat CPU 0 instructions: 410000003 cycles: 294125480 heartbeat IPC: 1.35926 cumulative IPC: 1.39175 (Simulation time: 0 hr 34 min 39 sec) 
Heartbeat CPU 0 instructions: 420000000 cycles: 301251058 heartbeat IPC: 1.40339 cumulative IPC: 1.39202 (Simulation time: 0 hr 35 min 30 sec) 
Heartbeat CPU 0 instructions: 430000004 cycles: 308305428 heartbeat IPC: 1.41756 cumulative IPC: 1.39261 (Simulation time: 0 hr 36 min 21 sec) 
Heartbeat CPU 0 instructions: 440000000 cycles: 315375027 heartbeat IPC: 1.41451 cumulative IPC: 1.3931 (Simulation time: 0 hr 37 min 11 sec) 
Heartbeat CPU 0 instructions: 450000003 cycles: 322492482 heartbeat IPC: 1.405 cumulative IPC: 1.39336 (Simulation time: 0 hr 38 min 1 sec) 
Heartbeat CPU 0 instructions: 460000000 cycles: 329587369 heartbeat IPC: 1.40947 cumulative IPC: 1.39371 (Simulation time: 0 hr 38 min 49 sec) 
Heartbeat CPU 0 instructions: 470000000 cycles: 336557053 heartbeat IPC: 1.43479 cumulative IPC: 1.39456 (Simulation time: 0 hr 39 min 39 sec) 
Heartbeat CPU 0 instructions: 480000002 cycles: 343530142 heartbeat IPC: 1.43408 cumulative IPC: 1.39536 (Simulation time: 0 hr 40 min 29 sec) 
Heartbeat CPU 0 instructions: 490000003 cycles: 350513564 heartbeat IPC: 1.43196 cumulative IPC: 1.39609 (Simulation time: 0 hr 41 min 20 sec) 
Heartbeat CPU 0 instructions: 500000002 cycles: 357616599 heartbeat IPC: 1.40785 cumulative IPC: 1.39633 (Simulation time: 0 hr 42 min 12 sec) 
Heartbeat CPU 0 instructions: 510000004 cycles: 364631847 heartbeat IPC: 1.42547 cumulative IPC: 1.39689 (Simulation time: 0 hr 43 min 4 sec) 
Heartbeat CPU 0 instructions: 520000001 cycles: 371635554 heartbeat IPC: 1.42781 cumulative IPC: 1.39747 (Simulation time: 0 hr 43 min 56 sec) 
Heartbeat CPU 0 instructions: 530000003 cycles: 378690388 heartbeat IPC: 1.41747 cumulative IPC: 1.39784 (Simulation time: 0 hr 44 min 45 sec) 
Heartbeat CPU 0 instructions: 540000000 cycles: 385704716 heartbeat IPC: 1.42565 cumulative IPC: 1.39835 (Simulation time: 0 hr 45 min 36 sec) 
Heartbeat CPU 0 instructions: 550000001 cycles: 392617656 heartbeat IPC: 1.44656 cumulative IPC: 1.3992 (Simulation time: 0 hr 46 min 26 sec) 
Heartbeat CPU 0 instructions: 560000003 cycles: 399586139 heartbeat IPC: 1.43503 cumulative IPC: 1.39982 (Simulation time: 0 hr 47 min 16 sec) 
Heartbeat CPU 0 instructions: 570000004 cycles: 406441050 heartbeat IPC: 1.45881 cumulative IPC: 1.40082 (Simulation time: 0 hr 48 min 7 sec) 
Heartbeat CPU 0 instructions: 580000000 cycles: 413427389 heartbeat IPC: 1.43136 cumulative IPC: 1.40134 (Simulation time: 0 hr 48 min 58 sec) 
Heartbeat CPU 0 instructions: 590000000 cycles: 420671149 heartbeat IPC: 1.3805 cumulative IPC: 1.40098 (Simulation time: 0 hr 49 min 51 sec) 
Heartbeat CPU 0 instructions: 600000000 cycles: 427792176 heartbeat IPC: 1.40429 cumulative IPC: 1.40103 (Simulation time: 0 hr 50 min 43 sec) 
Heartbeat CPU 0 instructions: 610000003 cycles: 434970436 heartbeat IPC: 1.3931 cumulative IPC: 1.4009 (Simulation time: 0 hr 51 min 34 sec) 
Heartbeat CPU 0 instructions: 620000003 cycles: 442035401 heartbeat IPC: 1.41544 cumulative IPC: 1.40113 (Simulation time: 0 hr 52 min 24 sec) 
Heartbeat CPU 0 instructions: 630000000 cycles: 449078468 heartbeat IPC: 1.41984 cumulative IPC: 1.40143 (Simulation time: 0 hr 53 min 14 sec) 
Heartbeat CPU 0 instructions: 640000001 cycles: 456127392 heartbeat IPC: 1.41866 cumulative IPC: 1.40169 (Simulation time: 0 hr 54 min 6 sec) 
Heartbeat CPU 0 instructions: 650000000 cycles: 463215251 heartbeat IPC: 1.41086 cumulative IPC: 1.40183 (Simulation time: 0 hr 54 min 57 sec) 
Heartbeat CPU 0 instructions: 660000002 cycles: 470204768 heartbeat IPC: 1.43071 cumulative IPC: 1.40226 (Simulation time: 0 hr 55 min 49 sec) 
Heartbeat CPU 0 instructions: 670000001 cycles: 477046784 heartbeat IPC: 1.46156 cumulative IPC: 1.40311 (Simulation time: 0 hr 56 min 39 sec) 
Heartbeat CPU 0 instructions: 680000004 cycles: 483964243 heartbeat IPC: 1.44562 cumulative IPC: 1.40372 (Simulation time: 0 hr 57 min 30 sec) 
Heartbeat CPU 0 instructions: 690000000 cycles: 491155063 heartbeat IPC: 1.39066 cumulative IPC: 1.40353 (Simulation time: 0 hr 58 min 21 sec) 
Heartbeat CPU 0 instructions: 700000002 cycles: 498320729 heartbeat IPC: 1.39554 cumulative IPC: 1.40342 (Simulation time: 0 hr 59 min 12 sec) 
Heartbeat CPU 0 instructions: 710000004 cycles: 505306993 heartbeat IPC: 1.43138 cumulative IPC: 1.4038 (Simulation time: 1 hr 0 min 4 sec) 
Heartbeat CPU 0 instructions: 720000001 cycles: 512208882 heartbeat IPC: 1.44888 cumulative IPC: 1.40441 (Simulation time: 1 hr 0 min 54 sec) 
Heartbeat CPU 0 instructions: 730000000 cycles: 519173451 heartbeat IPC: 1.43584 cumulative IPC: 1.40483 (Simulation time: 1 hr 1 min 44 sec) 
Heartbeat CPU 0 instructions: 740000000 cycles: 526048173 heartbeat IPC: 1.4546 cumulative IPC: 1.40548 (Simulation time: 1 hr 2 min 36 sec) 
Heartbeat CPU 0 instructions: 750000000 cycles: 533202236 heartbeat IPC: 1.39781 cumulative IPC: 1.40538 (Simulation time: 1 hr 3 min 27 sec) 
Heartbeat CPU 0 instructions: 760000001 cycles: 540294652 heartbeat IPC: 1.40996 cumulative IPC: 1.40544 (Simulation time: 1 hr 4 min 19 sec) 
Heartbeat CPU 0 instructions: 770000001 cycles: 547473302 heartbeat IPC: 1.39302 cumulative IPC: 1.40528 (Simulation time: 1 hr 5 min 12 sec) 
Heartbeat CPU 0 instructions: 780000003 cycles: 554716660 heartbeat IPC: 1.38058 cumulative IPC: 1.40495 (Simulation time: 1 hr 6 min 3 sec) 
Heartbeat CPU 0 instructions: 790000001 cycles: 561844978 heartbeat IPC: 1.40286 cumulative IPC: 1.40493 (Simulation time: 1 hr 6 min 55 sec) 
Heartbeat CPU 0 instructions: 800000002 cycles: 568885876 heartbeat IPC: 1.42027 cumulative IPC: 1.40512 (Simulation time: 1 hr 7 min 47 sec) 
Heartbeat CPU 0 instructions: 810000000 cycles: 575874875 heartbeat IPC: 1.43082 cumulative IPC: 1.40543 (Simulation time: 1 hr 8 min 38 sec) 
Heartbeat CPU 0 instructions: 820000000 cycles: 582695872 heartbeat IPC: 1.46606 cumulative IPC: 1.40614 (Simulation time: 1 hr 9 min 29 sec) 
Heartbeat CPU 0 instructions: 830000000 cycles: 589791597 heartbeat IPC: 1.4093 cumulative IPC: 1.40618 (Simulation time: 1 hr 10 min 21 sec) 
Heartbeat CPU 0 instructions: 840000003 cycles: 596719879 heartbeat IPC: 1.44336 cumulative IPC: 1.40661 (Simulation time: 1 hr 11 min 13 sec) 
Heartbeat CPU 0 instructions: 850000000 cycles: 603873087 heartbeat IPC: 1.39797 cumulative IPC: 1.40651 (Simulation time: 1 hr 12 min 4 sec) 
Heartbeat CPU 0 instructions: 860000000 cycles: 610909028 heartbeat IPC: 1.42127 cumulative IPC: 1.40668 (Simulation time: 1 hr 12 min 55 sec) 
Heartbeat CPU 0 instructions: 870000001 cycles: 617747275 heartbeat IPC: 1.46236 cumulative IPC: 1.40729 (Simulation time: 1 hr 13 min 44 sec) 
Heartbeat CPU 0 instructions: 880000003 cycles: 624826994 heartbeat IPC: 1.41249 cumulative IPC: 1.40735 (Simulation time: 1 hr 14 min 34 sec) 
Heartbeat CPU 0 instructions: 890000002 cycles: 631937081 heartbeat IPC: 1.40645 cumulative IPC: 1.40734 (Simulation time: 1 hr 15 min 24 sec) 
Heartbeat CPU 0 instructions: 900000000 cycles: 639014234 heartbeat IPC: 1.413 cumulative IPC: 1.40741 (Simulation time: 1 hr 16 min 13 sec) 
Heartbeat CPU 0 instructions: 910000001 cycles: 646049192 heartbeat IPC: 1.42147 cumulative IPC: 1.40756 (Simulation time: 1 hr 17 min 2 sec) 
Heartbeat CPU 0 instructions: 920000004 cycles: 653000811 heartbeat IPC: 1.43851 cumulative IPC: 1.40789 (Simulation time: 1 hr 17 min 51 sec) 
Heartbeat CPU 0 instructions: 930000002 cycles: 659890408 heartbeat IPC: 1.45146 cumulative IPC: 1.40834 (Simulation time: 1 hr 18 min 39 sec) 
Heartbeat CPU 0 instructions: 940000002 cycles: 666642313 heartbeat IPC: 1.48106 cumulative IPC: 1.40908 (Simulation time: 1 hr 19 min 27 sec) 
Heartbeat CPU 0 instructions: 950000000 cycles: 673438471 heartbeat IPC: 1.47142 cumulative IPC: 1.40971 (Simulation time: 1 hr 20 min 15 sec) 
Heartbeat CPU 0 instructions: 960000001 cycles: 680354551 heartbeat IPC: 1.44591 cumulative IPC: 1.41008 (Simulation time: 1 hr 21 min 2 sec) 
Heartbeat CPU 0 instructions: 970000002 cycles: 687168940 heartbeat IPC: 1.46748 cumulative IPC: 1.41065 (Simulation time: 1 hr 21 min 49 sec) 
Heartbeat CPU 0 instructions: 980000001 cycles: 694161310 heartbeat IPC: 1.43013 cumulative IPC: 1.41084 (Simulation time: 1 hr 22 min 36 sec) 
Heartbeat CPU 0 instructions: 990000003 cycles: 701108231 heartbeat IPC: 1.43949 cumulative IPC: 1.41113 (Simulation time: 1 hr 23 min 23 sec) 
Heartbeat CPU 0 instructions: 1000000003 cycles: 708457742 heartbeat IPC: 1.36063 cumulative IPC: 1.4106 (Simulation time: 1 hr 24 min 11 sec) 
Finished CPU 0 instructions: 1000000003 cycles: 708906081 cumulative IPC: 1.41062 (Simulation time: 1 hr 24 min 16 sec) 

ChampSim completed all CPUs

Region of Interest Statistics

CPU 0 cumulative IPC: 1.41062 instructions: 1000000003 cycles: 708906081
cpu0_DTLB TOTAL     ACCESS:  182917653  HIT:  182655899  MISS:     261754
cpu0_DTLB LOAD      ACCESS:  127485054  HIT:  127234102  MISS:     250952
cpu0_DTLB RFO       ACCESS:   55432599  HIT:   55421797  MISS:      10802
cpu0_DTLB PREFETCH  ACCESS:          0  HIT:          0  MISS:          0
cpu0_DTLB WRITEBACK ACCESS:          0  HIT:          0  MISS:          0
cpu0_DTLB TRANSLATION ACCESS:          0  HIT:          0  MISS:          0
cpu0_DTLB PREFETCH  REQUESTED:          0  ISSUED:          0  USEFUL:          0  USELESS:          0
cpu0_DTLB AVERAGE MISS LATENCY: 136.703 cycles
cpu0_ITLB TOTAL     ACCESS:   71262623  HIT:   71262621  MISS:          2
cpu0_ITLB LOAD      ACCESS:   71262623  HIT:   71262621  MISS:          2
cpu0_ITLB RFO       ACCESS:          0  HIT:          0  MISS:          0
cpu0_ITLB PREFETCH  ACCESS:          0  HIT:          0  MISS:          0
cpu0_ITLB WRITEBACK ACCESS:          0  HIT:          0  MISS:          0
cpu0_ITLB TRANSLATION ACCESS:          0  HIT:          0  MISS:          0
cpu0_ITLB PREFETCH  REQUESTED:          0  ISSUED:          0  USEFUL:          0  USELESS:          0
cpu0_ITLB AVERAGE MISS LATENCY: 222.5 cycles
cpu0_L1I TOTAL     ACCESS:  105228103  HIT:  104602599  MISS:     625504
cpu0_L1I LOAD      ACCESS:  105228103  HIT:  104602599  MISS:     625504
cpu0_L1I RFO       ACCESS:          0  HIT:          0  MISS:          0
cpu0_L1I PREFETCH  ACCESS:          0  HIT:          0  MISS:          0
cpu0_L1I WRITEBACK ACCESS:          0  HIT:          0  MISS:          0
cpu0_L1I TRANSLATION ACCESS:          0  HIT:          0  MISS:          0
cpu0_L1I PREFETCH  REQUESTED:          0  ISSUED:          0  USEFUL:          0  USELESS:          0
cpu0_L1I AVERAGE MISS LATENCY: 13.9515 cycles
cpu0_STLB TOTAL     ACCESS:     261756  HIT:      90417  MISS:     171339
cpu0_STLB LOAD      ACCESS:     250954  HIT:      79847  MISS:     171107
cpu0_STLB RFO       ACCESS:      10802  HIT:      10570  MISS:        232
cpu0_STLB PREFETCH  ACCESS:          0  HIT:          0  MISS:          0
cpu0_STLB WRITEBACK ACCESS:          0  HIT:          0  MISS:          0
cpu0_STLB TRANSLATION ACCESS:          0  HIT:          0  MISS:          0
cpu0_STLB PREFETCH  REQUESTED:          0  ISSUED:          0  USEFUL:          0  USELESS:          0
cpu0_STLB AVERAGE MISS LATENCY: 195.091 cycles
cpu0_L1D TOTAL     ACCESS:  421275389  HIT:  418215634  MISS:    3059755
cpu0_L1D LOAD      ACCESS:  153616825  HIT:  152551302  MISS:    1065523
cpu0_L1D RFO       ACCESS:  115334207  HIT:  114746483  MISS:     587724
cpu0_L1D PREFETCH  ACCESS:  152154209  HIT:  150910629  MISS:    1243580
cpu0_L1D WRITEBACK ACCESS:          0  HIT:          0  MISS:          0
cpu0_L1D TRANSLATION ACCESS:     170148  HIT:       7220  MISS:     162928
cpu0_L1D PREFETCH  REQUESTED:  153726984  ISSUED:  152547340  USEFUL:    1093196  USELESS:     184729
cpu0_L1D AVERAGE MISS LATENCY: 59.7896 cycles
cpu0_L2C TOTAL     ACCESS:    4722998  HIT:    4180412  MISS:     542586
cpu0_L2C LOAD      ACCESS:    1662458  HIT:    1381043  MISS:     281415
cpu0_L2C RFO       ACCESS:     581673  HIT:     561650  MISS:      20023
cpu0_L2C PREFETCH  ACCESS:    1336338  HIT:    1120597  MISS:     215741
cpu0_L2C WRITEBACK ACCESS:     979601  HIT:     978774  MISS:        827
cpu0_L2C TRANSLATION ACCESS:     162928  HIT:     138348  MISS:      24580
cpu0_L2C PREFETCH  REQUESTED:      59141  ISSUED:      59029  USEFUL:       4074  USELESS:       5217
cpu0_L2C AVERAGE MISS LATENCY: 269.049 cycles
LLC TOTAL     ACCESS:     757571  HIT:     328570  MISS:     429001
LLC LOAD      ACCESS:     281415  HIT:      37760  MISS:     243655
LLC RFO       ACCESS:      20023  HIT:      18056  MISS:       1967
LLC PREFETCH  ACCESS:     215741  HIT:      34289  MISS:     181452
LLC WRITEBACK ACCESS:     215812  HIT:     214400  MISS:       1412
LLC TRANSLATION ACCESS:      24580  HIT:      24065  MISS:        515
LLC PREFETCH  REQUESTED:          0  ISSUED:          0  USEFUL:          0  USELESS:          0
LLC AVERAGE MISS LATENCY: 306.188 cycles

DRAM Statistics
 CHANNEL 0
 RQ ROW_BUFFER_HIT:        485  ROW_BUFFER_MISS:     427104
 DBUS AVG_CONGESTED_CYCLE:    3.77979
 WQ ROW_BUFFER_HIT:      17143  ROW_BUFFER_MISS:     144260  FULL:          0


CPU 0 Branch Prediction Accuracy: 93.4819% MPKI: 9.64201 Average ROB Occupancy at Mispredict: 41.9163
Branch type MPKI
BRANCH_DIRECT_JUMP: 8.5e-05
BRANCH_INDIRECT: 0.001932
BRANCH_CONDITIONAL: 9.63988
BRANCH_DIRECT_CALL: 5.9e-05
BRANCH_INDIRECT_CALL: 0
BRANCH_RETURN: 5.7e-05

