
*** ChampSim Multicore Out-of-Order Simulator ***

Warmup Instructions: 1000000
Simulation Instructions: 1000000000
Number of CPUs: 1
Off-chip DRAM Size: 4 GiB Channels: 1 Width: 64-bit Data Rate: 3200 MT/s

VirtualMemory physical capacity: 8588881920 num_ppages: 2096895
VirtualMemory page size: 4096 log2_page_size: 12

CPU 0 runs tracer/pin/traces/spec2k6/401.bzip2-38B.champsimtrace.xz
Basic BTB sets: 1024 ways: 8 indirect buffer size: 4096 RAS size: 64
cpu0_L1D next line prefetcher
cpu0_L2C IP-based stride prefetcher
WARNING: The extended signature CACHE::prefetch_line(ip, base_addr, pf_addr, fill_this_level, prefetch_metadata) is deprecated.
WARNING: Use CACHE::prefetch_line(pf_addr, fill_this_level, prefetch_metadata) instead.

Warmup complete CPU 0 instructions: 1000004 cycles: 250427 (Simulation time: 0 hr 0 min 2 sec) 

Heartbeat CPU 0 instructions: 10000001 cycles: 5313242 heartbeat IPC: 1.88209 cumulative IPC: 1.77767 (Simulation time: 0 hr 0 min 28 sec) 
Heartbeat CPU 0 instructions: 20000004 cycles: 13902453 heartbeat IPC: 1.16425 cumulative IPC: 1.39173 (Simulation time: 0 hr 1 min 11 sec) 
Heartbeat CPU 0 instructions: 30000001 cycles: 24940608 heartbeat IPC: 0.905948 cumulative IPC: 1.17456 (Simulation time: 0 hr 2 min 5 sec) 
Heartbeat CPU 0 instructions: 40000002 cycles: 34512068 heartbeat IPC: 1.04477 cumulative IPC: 1.1383 (Simulation time: 0 hr 2 min 50 sec) 
Heartbeat CPU 0 instructions: 50000002 cycles: 40307725 heartbeat IPC: 1.72543 cumulative IPC: 1.22325 (Simulation time: 0 hr 3 min 25 sec) 
Heartbeat CPU 0 instructions: 60000000 cycles: 46455656 heartbeat IPC: 1.62656 cumulative IPC: 1.27691 (Simulation time: 0 hr 4 min 3 sec) 
Heartbeat CPU 0 instructions: 70000000 cycles: 52588471 heartbeat IPC: 1.63057 cumulative IPC: 1.31835 (Simulation time: 0 hr 4 min 41 sec) 
Heartbeat CPU 0 instructions: 80000003 cycles: 60875973 heartbeat IPC: 1.20664 cumulative IPC: 1.30308 (Simulation time: 0 hr 5 min 26 sec) 
Heartbeat CPU 0 instructions: 90000000 cycles: 71202961 heartbeat IPC: 0.968336 cumulative IPC: 1.25436 (Simulation time: 0 hr 6 min 15 sec) 
Heartbeat CPU 0 instructions: 100000001 cycles: 79934543 heartbeat IPC: 1.14527 cumulative IPC: 1.24241 (Simulation time: 0 hr 7 min 0 sec) 
Heartbeat CPU 0 instructions: 110000002 cycles: 89016005 heartbeat IPC: 1.10114 cumulative IPC: 1.22795 (Simulation time: 0 hr 7 min 42 sec) 
Heartbeat CPU 0 instructions: 120000003 cycles: 98179983 heartbeat IPC: 1.09123 cumulative IPC: 1.21516 (Simulation time: 0 hr 8 min 23 sec) 
Heartbeat CPU 0 instructions: 130000000 cycles: 107573503 heartbeat IPC: 1.06456 cumulative IPC: 1.20198 (Simulation time: 0 hr 9 min 5 sec) 
Heartbeat CPU 0 instructions: 140000000 cycles: 116835597 heartbeat IPC: 1.07967 cumulative IPC: 1.19226 (Simulation time: 0 hr 9 min 46 sec) 
Heartbeat CPU 0 instructions: 150000000 cycles: 125981777 heartbeat IPC: 1.09335 cumulative IPC: 1.18507 (Simulation time: 0 hr 10 min 26 sec) 
Heartbeat CPU 0 instructions: 160000001 cycles: 135845358 heartbeat IPC: 1.01383 cumulative IPC: 1.17261 (Simulation time: 0 hr 11 min 13 sec) 
Heartbeat CPU 0 instructions: 170000002 cycles: 145608140 heartbeat IPC: 1.0243 cumulative IPC: 1.16265 (Simulation time: 0 hr 11 min 58 sec) 
Heartbeat CPU 0 instructions: 180000002 cycles: 155365205 heartbeat IPC: 1.0249 cumulative IPC: 1.15398 (Simulation time: 0 hr 12 min 47 sec) 
Heartbeat CPU 0 instructions: 190000004 cycles: 167767234 heartbeat IPC: 0.80632 cumulative IPC: 1.12824 (Simulation time: 0 hr 13 min 51 sec) 
Heartbeat CPU 0 instructions: 200000003 cycles: 172916087 heartbeat IPC: 1.94218 cumulative IPC: 1.15252 (Simulation time: 0 hr 14 min 27 sec) 
Heartbeat CPU 0 instructions: 210000001 cycles: 178792372 heartbeat IPC: 1.70176 cumulative IPC: 1.17059 (Simulation time: 0 hr 15 min 4 sec) 
Heartbeat CPU 0 instructions: 220000000 cycles: 189922244 heartbeat IPC: 0.898483 cumulative IPC: 1.15463 (Simulation time: 0 hr 16 min 12 sec) 
Heartbeat CPU 0 instructions: 230000004 cycles: 200941691 heartbeat IPC: 0.907487 cumulative IPC: 1.14106 (Simulation time: 0 hr 17 min 19 sec) 
Heartbeat CPU 0 instructions: 240000002 cycles: 208318595 heartbeat IPC: 1.35558 cumulative IPC: 1.14866 (Simulation time: 0 hr 18 min 3 sec) 
Heartbeat CPU 0 instructions: 250000000 cycles: 214256607 heartbeat IPC: 1.68406 cumulative IPC: 1.16352 (Simulation time: 0 hr 18 min 49 sec) 
Heartbeat CPU 0 instructions: 260000003 cycles: 220586721 heartbeat IPC: 1.57975 cumulative IPC: 1.17548 (Simulation time: 0 hr 19 min 38 sec) 
Heartbeat CPU 0 instructions: 270000003 cycles: 226925796 heartbeat IPC: 1.57752 cumulative IPC: 1.18672 (Simulation time: 0 hr 20 min 29 sec) 
Heartbeat CPU 0 instructions: 280000002 cycles: 237851675 heartbeat IPC: 0.915258 cumulative IPC: 1.17424 (Simulation time: 0 hr 21 min 40 sec) 
Heartbeat CPU 0 instructions: 290000003 cycles: 247312258 heartbeat IPC: 1.05702 cumulative IPC: 1.16975 (Simulation time: 0 hr 22 min 42 sec) 
Heartbeat CPU 0 instructions: 300000003 cycles: 256297935 heartbeat IPC: 1.11288 cumulative IPC: 1.16775 (Simulation time: 0 hr 23 min 34 sec) 
Heartbeat CPU 0 instructions: 310000000 cycles: 265538120 heartbeat IPC: 1.08223 cumulative IPC: 1.16477 (Simulation time: 0 hr 24 min 28 sec) 
Heartbeat CPU 0 instructions: 320000001 cycles: 274982649 heartbeat IPC: 1.05881 cumulative IPC: 1.16113 (Simulation time: 0 hr 25 min 24 sec) 
Heartbeat CPU 0 instructions: 330000002 cycles: 284454026 heartbeat IPC: 1.05581 cumulative IPC: 1.15762 (Simulation time: 0 hr 26 min 22 sec) 
Heartbeat CPU 0 instructions: 340000002 cycles: 293813503 heartbeat IPC: 1.06844 cumulative IPC: 1.15478 (Simulation time: 0 hr 27 min 20 sec) 
Heartbeat CPU 0 instructions: 350000002 cycles: 303116124 heartbeat IPC: 1.07497 cumulative IPC: 1.15233 (Simulation time: 0 hr 28 min 21 sec) 
Heartbeat CPU 0 instructions: 360000002 cycles: 313053286 heartbeat IPC: 1.00632 cumulative IPC: 1.14769 (Simulation time: 0 hr 29 min 23 sec) 
Heartbeat CPU 0 instructions: 370000003 cycles: 323162465 heartbeat IPC: 0.9892 cumulative IPC: 1.14273 (Simulation time: 0 hr 30 min 22 sec) 
Heartbeat CPU 0 instructions: 380000000 cycles: 333792113 heartbeat IPC: 0.940765 cumulative IPC: 1.13629 (Simulation time: 0 hr 31 min 40 sec) 
Heartbeat CPU 0 instructions: 390000003 cycles: 340077328 heartbeat IPC: 1.59104 cumulative IPC: 1.1447 (Simulation time: 0 hr 32 min 30 sec) 
Heartbeat CPU 0 instructions: 400000000 cycles: 348942538 heartbeat IPC: 1.128 cumulative IPC: 1.14428 (Simulation time: 0 hr 33 min 44 sec) 
Heartbeat CPU 0 instructions: 410000002 cycles: 360029688 heartbeat IPC: 0.901945 cumulative IPC: 1.13681 (Simulation time: 0 hr 35 min 21 sec) 
Heartbeat CPU 0 instructions: 420000002 cycles: 369239755 heartbeat IPC: 1.08577 cumulative IPC: 1.13553 (Simulation time: 0 hr 36 min 29 sec) 
Heartbeat CPU 0 instructions: 430000001 cycles: 375038575 heartbeat IPC: 1.72449 cumulative IPC: 1.14465 (Simulation time: 0 hr 37 min 30 sec) 
Heartbeat CPU 0 instructions: 440000002 cycles: 381086748 heartbeat IPC: 1.65339 cumulative IPC: 1.15273 (Simulation time: 0 hr 38 min 33 sec) 
Heartbeat CPU 0 instructions: 450000004 cycles: 386882604 heartbeat IPC: 1.72537 cumulative IPC: 1.16131 (Simulation time: 0 hr 39 min 38 sec) 
Heartbeat CPU 0 instructions: 460000000 cycles: 397545329 heartbeat IPC: 0.937846 cumulative IPC: 1.15531 (Simulation time: 0 hr 41 min 0 sec) 
Heartbeat CPU 0 instructions: 470000001 cycles: 406950624 heartbeat IPC: 1.06323 cumulative IPC: 1.15318 (Simulation time: 0 hr 42 min 4 sec) 
Heartbeat CPU 0 instructions: 480000001 cycles: 414539869 heartbeat IPC: 1.31765 cumulative IPC: 1.1562 (Simulation time: 0 hr 43 min 3 sec) 
Heartbeat CPU 0 instructions: 490000003 cycles: 422909388 heartbeat IPC: 1.19481 cumulative IPC: 1.15696 (Simulation time: 0 hr 44 min 2 sec) 
Heartbeat CPU 0 instructions: 500000003 cycles: 431772177 heartbeat IPC: 1.12831 cumulative IPC: 1.15637 (Simulation time: 0 hr 45 min 2 sec) 
Heartbeat CPU 0 instructions: 510000003 cycles: 440098592 heartbeat IPC: 1.201 cumulative IPC: 1.15722 (Simulation time: 0 hr 46 min 3 sec) 
Heartbeat CPU 0 instructions: 520000000 cycles: 449030637 heartbeat IPC: 1.11956 cumulative IPC: 1.15647 (Simulation time: 0 hr 47 min 0 sec) 
Heartbeat CPU 0 instructions: 530000000 cycles: 457365818 heartbeat IPC: 1.19973 cumulative IPC: 1.15726 (Simulation time: 0 hr 48 min 2 sec) 
Heartbeat CPU 0 instructions: 540000000 cycles: 466088147 heartbeat IPC: 1.14648 cumulative IPC: 1.15706 (Simulation time: 0 hr 49 min 0 sec) 
Heartbeat CPU 0 instructions: 550000004 cycles: 475572451 heartbeat IPC: 1.05437 cumulative IPC: 1.15501 (Simulation time: 0 hr 50 min 0 sec) 
Heartbeat CPU 0 instructions: 560000003 cycles: 484681245 heartbeat IPC: 1.09784 cumulative IPC: 1.15393 (Simulation time: 0 hr 50 min 53 sec) 
Heartbeat CPU 0 instructions: 570000000 cycles: 493756311 heartbeat IPC: 1.10192 cumulative IPC: 1.15298 (Simulation time: 0 hr 51 min 47 sec) 
Heartbeat CPU 0 instructions: 580000002 cycles: 504939983 heartbeat IPC: 0.894161 cumulative IPC: 1.14724 (Simulation time: 0 hr 52 min 56 sec) 
Heartbeat CPU 0 instructions: 590000001 cycles: 510642138 heartbeat IPC: 1.75372 cumulative IPC: 1.15402 (Simulation time: 0 hr 53 min 36 sec) 
Heartbeat CPU 0 instructions: 600000000 cycles: 519946765 heartbeat IPC: 1.07473 cumulative IPC: 1.1526 (Simulation time: 0 hr 54 min 41 sec) 
Heartbeat CPU 0 instructions: 610000002 cycles: 531059269 heartbeat IPC: 0.899887 cumulative IPC: 1.14731 (Simulation time: 0 hr 56 min 6 sec) 
Heartbeat CPU 0 instructions: 620000001 cycles: 539014885 heartbeat IPC: 1.25697 cumulative IPC: 1.14893 (Simulation time: 0 hr 57 min 10 sec) 
Heartbeat CPU 0 instructions: 630000001 cycles: 545020809 heartbeat IPC: 1.66502 cumulative IPC: 1.15461 (Simulation time: 0 hr 58 min 12 sec) 
Heartbeat CPU 0 instructions: 640000003 cycles: 551046250 heartbeat IPC: 1.65963 cumulative IPC: 1.16014 (Simulation time: 0 hr 59 min 14 sec) 
Heartbeat CPU 0 instructions: 650000000 cycles: 557014820 heartbeat IPC: 1.67544 cumulative IPC: 1.16566 (Simulation time: 1 hr 0 min 18 sec) 
Heartbeat CPU 0 instructions: 660000004 cycles: 567444015 heartbeat IPC: 0.958847 cumulative IPC: 1.16186 (Simulation time: 1 hr 1 min 42 sec) 
Heartbeat CPU 0 instructions: 670000001 cycles: 576044329 heartbeat IPC: 1.16275 cumulative IPC: 1.16187 (Simulation time: 1 hr 2 min 49 sec) 
Heartbeat CPU 0 instructions: 680000000 cycles: 583878774 heartbeat IPC: 1.27641 cumulative IPC: 1.16341 (Simulation time: 1 hr 3 min 50 sec) 
Heartbeat CPU 0 instructions: 690000000 cycles: 592593545 heartbeat IPC: 1.14748 cumulative IPC: 1.16318 (Simulation time: 1 hr 4 min 53 sec) 
Heartbeat CPU 0 instructions: 700000003 cycles: 601333582 heartbeat IPC: 1.14416 cumulative IPC: 1.1629 (Simulation time: 1 hr 5 min 55 sec) 
Heartbeat CPU 0 instructions: 710000003 cycles: 610245726 heartbeat IPC: 1.12206 cumulative IPC: 1.1623 (Simulation time: 1 hr 6 min 53 sec) 
Heartbeat CPU 0 instructions: 720000000 cycles: 619137228 heartbeat IPC: 1.12467 cumulative IPC: 1.16176 (Simulation time: 1 hr 7 min 52 sec) 
Heartbeat CPU 0 instructions: 730000002 cycles: 628328510 heartbeat IPC: 1.08799 cumulative IPC: 1.16068 (Simulation time: 1 hr 8 min 55 sec) 
Heartbeat CPU 0 instructions: 740000004 cycles: 637604511 heartbeat IPC: 1.07805 cumulative IPC: 1.15948 (Simulation time: 1 hr 9 min 57 sec) 
Heartbeat CPU 0 instructions: 750000001 cycles: 647499450 heartbeat IPC: 1.01062 cumulative IPC: 1.15721 (Simulation time: 1 hr 11 min 0 sec) 
Heartbeat CPU 0 instructions: 760000003 cycles: 658451688 heartbeat IPC: 0.913056 cumulative IPC: 1.15314 (Simulation time: 1 hr 12 min 6 sec) 
Heartbeat CPU 0 instructions: 770000001 cycles: 670699833 heartbeat IPC: 0.81645 cumulative IPC: 1.14699 (Simulation time: 1 hr 13 min 23 sec) 
Heartbeat CPU 0 instructions: 780000000 cycles: 675875807 heartbeat IPC: 1.932 cumulative IPC: 1.15301 (Simulation time: 1 hr 14 min 1 sec) 
Heartbeat CPU 0 instructions: 790000004 cycles: 682665340 heartbeat IPC: 1.47286 cumulative IPC: 1.15619 (Simulation time: 1 hr 14 min 49 sec) 
Heartbeat CPU 0 instructions: 800000000 cycles: 693794113 heartbeat IPC: 0.898571 cumulative IPC: 1.15205 (Simulation time: 1 hr 16 min 6 sec) 
Heartbeat CPU 0 instructions: 810000001 cycles: 704844521 heartbeat IPC: 0.904944 cumulative IPC: 1.14818 (Simulation time: 1 hr 17 min 25 sec) 
Heartbeat CPU 0 instructions: 820000004 cycles: 711153198 heartbeat IPC: 1.58512 cumulative IPC: 1.15206 (Simulation time: 1 hr 18 min 11 sec) 
Heartbeat CPU 0 instructions: 830000000 cycles: 717792799 heartbeat IPC: 1.50611 cumulative IPC: 1.15533 (Simulation time: 1 hr 19 min 5 sec) 
Heartbeat CPU 0 instructions: 840000000 cycles: 724186057 heartbeat IPC: 1.56415 cumulative IPC: 1.15894 (Simulation time: 1 hr 20 min 0 sec) 
Heartbeat CPU 0 instructions: 850000000 cycles: 730935519 heartbeat IPC: 1.4816 cumulative IPC: 1.16192 (Simulation time: 1 hr 20 min 59 sec) 
Heartbeat CPU 0 instructions: 860000001 cycles: 742003519 heartbeat IPC: 0.903506 cumulative IPC: 1.15807 (Simulation time: 1 hr 22 min 10 sec) 
Heartbeat CPU 0 instructions: 870000003 cycles: 750911391 heartbeat IPC: 1.1226 cumulative IPC: 1.15765 (Simulation time: 1 hr 23 min 4 sec) 
Heartbeat CPU 0 instructions: 880000003 cycles: 759667880 heartbeat IPC: 1.14201 cumulative IPC: 1.15747 (Simulation time: 1 hr 23 min 54 sec) 
Heartbeat CPU 0 instructions: 890000000 cycles: 768024308 heartbeat IPC: 1.19668 cumulative IPC: 1.15789 (Simulation time: 1 hr 24 min 44 sec) 
Heartbeat CPU 0 instructions: 900000002 cycles: 777305599 heartbeat IPC: 1.07744 cumulative IPC: 1.15693 (Simulation time: 1 hr 25 min 34 sec) 
Heartbeat CPU 0 instructions: 910000001 cycles: 785155306 heartbeat IPC: 1.27393 cumulative IPC: 1.1581 (Simulation time: 1 hr 26 min 26 sec) 
Heartbeat CPU 0 instructions: 920000000 cycles: 793093159 heartbeat IPC: 1.25979 cumulative IPC: 1.15912 (Simulation time: 1 hr 27 min 16 sec) 
Heartbeat CPU 0 instructions: 930000003 cycles: 802547465 heartbeat IPC: 1.05772 cumulative IPC: 1.15793 (Simulation time: 1 hr 28 min 7 sec) 
Heartbeat CPU 0 instructions: 940000000 cycles: 812514701 heartbeat IPC: 1.00329 cumulative IPC: 1.15603 (Simulation time: 1 hr 29 min 2 sec) 
Heartbeat CPU 0 instructions: 950000004 cycles: 821389382 heartbeat IPC: 1.1268 cumulative IPC: 1.15571 (Simulation time: 1 hr 29 min 51 sec) 
Heartbeat CPU 0 instructions: 960000004 cycles: 829785077 heartbeat IPC: 1.19109 cumulative IPC: 1.15607 (Simulation time: 1 hr 30 min 40 sec) 
Heartbeat CPU 0 instructions: 970000001 cycles: 839185569 heartbeat IPC: 1.06377 cumulative IPC: 1.15504 (Simulation time: 1 hr 31 min 36 sec) 
Heartbeat CPU 0 instructions: 980000004 cycles: 845282516 heartbeat IPC: 1.64017 cumulative IPC: 1.15854 (Simulation time: 1 hr 32 min 15 sec) 
Heartbeat CPU 0 instructions: 990000000 cycles: 853965774 heartbeat IPC: 1.15164 cumulative IPC: 1.15847 (Simulation time: 1 hr 33 min 12 sec) 
Heartbeat CPU 0 instructions: 1000000004 cycles: 865060099 heartbeat IPC: 0.901362 cumulative IPC: 1.15517 (Simulation time: 1 hr 34 min 24 sec) 
Finished CPU 0 instructions: 1000000002 cycles: 865893709 cumulative IPC: 1.15488 (Simulation time: 1 hr 34 min 31 sec) 

ChampSim completed all CPUs

Region of Interest Statistics

CPU 0 cumulative IPC: 1.15488 instructions: 1000000002 cycles: 865893709
cpu0_DTLB TOTAL     ACCESS:  252443965  HIT:  248355604  MISS:    4088361
cpu0_DTLB LOAD      ACCESS:  179738524  HIT:  177793169  MISS:    1945355
cpu0_DTLB RFO       ACCESS:   72705441  HIT:   70562435  MISS:    2143006
cpu0_DTLB PREFETCH  ACCESS:          0  HIT:          0  MISS:          0
cpu0_DTLB WRITEBACK ACCESS:          0  HIT:          0  MISS:          0
cpu0_DTLB TRANSLATION ACCESS:          0  HIT:          0  MISS:          0
cpu0_DTLB PREFETCH  REQUESTED:          0  ISSUED:          0  USEFUL:          0  USELESS:          0
cpu0_DTLB AVERAGE MISS LATENCY: 9.12718 cycles
cpu0_ITLB TOTAL     ACCESS:   58768470  HIT:   58768462  MISS:          8
cpu0_ITLB LOAD      ACCESS:   58768470  HIT:   58768462  MISS:          8
cpu0_ITLB RFO       ACCESS:          0  HIT:          0  MISS:          0
cpu0_ITLB PREFETCH  ACCESS:          0  HIT:          0  MISS:          0
cpu0_ITLB WRITEBACK ACCESS:          0  HIT:          0  MISS:          0
cpu0_ITLB TRANSLATION ACCESS:          0  HIT:          0  MISS:          0
cpu0_ITLB PREFETCH  REQUESTED:          0  ISSUED:          0  USEFUL:          0  USELESS:          0
cpu0_ITLB AVERAGE MISS LATENCY: 391.875 cycles
cpu0_L1I TOTAL     ACCESS:   48131433  HIT:   48131112  MISS:        321
cpu0_L1I LOAD      ACCESS:   48131433  HIT:   48131112  MISS:        321
cpu0_L1I RFO       ACCESS:          0  HIT:          0  MISS:          0
cpu0_L1I PREFETCH  ACCESS:          0  HIT:          0  MISS:          0
cpu0_L1I WRITEBACK ACCESS:          0  HIT:          0  MISS:          0
cpu0_L1I TRANSLATION ACCESS:          0  HIT:          0  MISS:          0
cpu0_L1I PREFETCH  REQUESTED:          0  ISSUED:          0  USEFUL:          0  USELESS:          0
cpu0_L1I AVERAGE MISS LATENCY: 364.299 cycles
cpu0_STLB TOTAL     ACCESS:    4088369  HIT:    4086772  MISS:       1597
cpu0_STLB LOAD      ACCESS:    1945363  HIT:    1944317  MISS:       1046
cpu0_STLB RFO       ACCESS:    2143006  HIT:    2142455  MISS:        551
cpu0_STLB PREFETCH  ACCESS:          0  HIT:          0  MISS:          0
cpu0_STLB WRITEBACK ACCESS:          0  HIT:          0  MISS:          0
cpu0_STLB TRANSLATION ACCESS:          0  HIT:          0  MISS:          0
cpu0_STLB PREFETCH  REQUESTED:          0  ISSUED:          0  USEFUL:          0  USELESS:          0
cpu0_STLB AVERAGE MISS LATENCY: 215.605 cycles
cpu0_L1D TOTAL     ACCESS:  487011340  HIT:  466833427  MISS:   20177913
cpu0_L1D LOAD      ACCESS:  188295368  HIT:  179149377  MISS:    9145991
cpu0_L1D RFO       ACCESS:  119858809  HIT:  116938411  MISS:    2920398
cpu0_L1D PREFETCH  ACCESS:  178855566  HIT:  170744528  MISS:    8111038
cpu0_L1D WRITEBACK ACCESS:          0  HIT:          0  MISS:          0
cpu0_L1D TRANSLATION ACCESS:       1597  HIT:       1111  MISS:        486
cpu0_L1D PREFETCH  REQUESTED:  190428894  ISSUED:  184133913  USEFUL:    3822688  USELESS:    4756783
cpu0_L1D AVERAGE MISS LATENCY: 54.8557 cycles
cpu0_L2C TOTAL     ACCESS:   27783619  HIT:   18124405  MISS:    9659214
cpu0_L2C LOAD      ACCESS:    8670880  HIT:    5041535  MISS:    3629345
cpu0_L2C RFO       ACCESS:    2917900  HIT:     895749  MISS:    2022151
cpu0_L2C PREFETCH  ACCESS:   11987156  HIT:    7985094  MISS:    4002062
cpu0_L2C WRITEBACK ACCESS:    4207197  HIT:    4201570  MISS:       5627
cpu0_L2C TRANSLATION ACCESS:        486  HIT:        457  MISS:         29
cpu0_L2C PREFETCH  REQUESTED:    4207079  ISSUED:    3545834  USEFUL:     199181  USELESS:     181690
cpu0_L2C AVERAGE MISS LATENCY: 99.7392 cycles
LLC TOTAL     ACCESS:   12208358  HIT:   10880946  MISS:    1327412
LLC LOAD      ACCESS:    3627649  HIT:    3401599  MISS:     226050
LLC RFO       ACCESS:    2021968  HIT:    1479403  MISS:     542565
LLC PREFETCH  ACCESS:    4038216  HIT:    3514280  MISS:     523936
LLC WRITEBACK ACCESS:    2520496  HIT:    2485653  MISS:      34843
LLC TRANSLATION ACCESS:         29  HIT:         11  MISS:         18
LLC PREFETCH  REQUESTED:          0  ISSUED:          0  USEFUL:          0  USELESS:          0
LLC AVERAGE MISS LATENCY: 533.343 cycles

DRAM Statistics
 CHANNEL 0
 RQ ROW_BUFFER_HIT:     215562  ROW_BUFFER_MISS:    1072066
 DBUS AVG_CONGESTED_CYCLE:    3.96703
 WQ ROW_BUFFER_HIT:      40284  ROW_BUFFER_MISS:     704366  FULL:          0


CPU 0 Branch Prediction Accuracy: 91.0282% MPKI: 12.8212 Average ROB Occupancy at Mispredict: 27.0186
Branch type MPKI
BRANCH_DIRECT_JUMP: 5.1e-05
BRANCH_INDIRECT: 0
BRANCH_CONDITIONAL: 12.821
BRANCH_DIRECT_CALL: 9.4e-05
BRANCH_INDIRECT_CALL: 0
BRANCH_RETURN: 9.4e-05

