
*** ChampSim Multicore Out-of-Order Simulator ***

Warmup Instructions: 1000000
Simulation Instructions: 1000000000
Number of CPUs: 1
Off-chip DRAM Size: 4 GiB Channels: 1 Width: 64-bit Data Rate: 3200 MT/s

VirtualMemory physical capacity: 8588881920 num_ppages: 2096895
VirtualMemory page size: 4096 log2_page_size: 12

CPU 0 runs tracer/pin/traces/spec2k6/471.omnetpp-188B.champsimtrace.xz
Basic BTB sets: 1024 ways: 8 indirect buffer size: 4096 RAS size: 64
cpu0_L1D next line prefetcher
cpu0_L2C IP-based stride prefetcher
WARNING: The extended signature CACHE::prefetch_line(ip, base_addr, pf_addr, fill_this_level, prefetch_metadata) is deprecated.
WARNING: Use CACHE::prefetch_line(pf_addr, fill_this_level, prefetch_metadata) instead.

Warmup complete CPU 0 instructions: 1000003 cycles: 253631 (Simulation time: 0 hr 0 min 4 sec) 

Heartbeat CPU 0 instructions: 10000000 cycles: 44170636 heartbeat IPC: 0.226395 cumulative IPC: 0.204932 (Simulation time: 0 hr 2 min 51 sec) 
Heartbeat CPU 0 instructions: 20000002 cycles: 79404343 heartbeat IPC: 0.283819 cumulative IPC: 0.240048 (Simulation time: 0 hr 5 min 4 sec) 
Heartbeat CPU 0 instructions: 30000002 cycles: 126706821 heartbeat IPC: 0.211405 cumulative IPC: 0.229334 (Simulation time: 0 hr 8 min 19 sec) 
Heartbeat CPU 0 instructions: 40000002 cycles: 163242758 heartbeat IPC: 0.273703 cumulative IPC: 0.23928 (Simulation time: 0 hr 10 min 46 sec) 
Heartbeat CPU 0 instructions: 50000001 cycles: 208916851 heartbeat IPC: 0.218942 cumulative IPC: 0.234828 (Simulation time: 0 hr 13 min 45 sec) 
Heartbeat CPU 0 instructions: 60000001 cycles: 250113496 heartbeat IPC: 0.242738 cumulative IPC: 0.236132 (Simulation time: 0 hr 16 min 25 sec) 
Heartbeat CPU 0 instructions: 70000002 cycles: 288493556 heartbeat IPC: 0.260552 cumulative IPC: 0.239384 (Simulation time: 0 hr 18 min 58 sec) 
Heartbeat CPU 0 instructions: 80000002 cycles: 333672295 heartbeat IPC: 0.221343 cumulative IPC: 0.236939 (Simulation time: 0 hr 22 min 4 sec) 
Heartbeat CPU 0 instructions: 90000001 cycles: 377062825 heartbeat IPC: 0.230465 cumulative IPC: 0.236194 (Simulation time: 0 hr 24 min 54 sec) 
Heartbeat CPU 0 instructions: 100000000 cycles: 420256343 heartbeat IPC: 0.231516 cumulative IPC: 0.235713 (Simulation time: 0 hr 27 min 41 sec) 
Heartbeat CPU 0 instructions: 110000003 cycles: 462804523 heartbeat IPC: 0.235028 cumulative IPC: 0.23565 (Simulation time: 0 hr 30 min 24 sec) 
Heartbeat CPU 0 instructions: 120000003 cycles: 507751386 heartbeat IPC: 0.222485 cumulative IPC: 0.234484 (Simulation time: 0 hr 33 min 15 sec) 
Heartbeat CPU 0 instructions: 130000000 cycles: 547290784 heartbeat IPC: 0.252912 cumulative IPC: 0.235816 (Simulation time: 0 hr 35 min 42 sec) 
Heartbeat CPU 0 instructions: 140000000 cycles: 591996376 heartbeat IPC: 0.223686 cumulative IPC: 0.234899 (Simulation time: 0 hr 38 min 27 sec) 
Heartbeat CPU 0 instructions: 150000002 cycles: 632134583 heartbeat IPC: 0.249139 cumulative IPC: 0.235804 (Simulation time: 0 hr 40 min 59 sec) 
Heartbeat CPU 0 instructions: 160000000 cycles: 672455553 heartbeat IPC: 0.24801 cumulative IPC: 0.236536 (Simulation time: 0 hr 43 min 31 sec) 
Heartbeat CPU 0 instructions: 170000001 cycles: 717971423 heartbeat IPC: 0.219704 cumulative IPC: 0.235469 (Simulation time: 0 hr 46 min 24 sec) 
Heartbeat CPU 0 instructions: 180000001 cycles: 759247263 heartbeat IPC: 0.242272 cumulative IPC: 0.235839 (Simulation time: 0 hr 48 min 56 sec) 
Heartbeat CPU 0 instructions: 190000004 cycles: 800597838 heartbeat IPC: 0.241835 cumulative IPC: 0.236148 (Simulation time: 0 hr 51 min 26 sec) 
Heartbeat CPU 0 instructions: 200000004 cycles: 842136157 heartbeat IPC: 0.240742 cumulative IPC: 0.236375 (Simulation time: 0 hr 53 min 54 sec) 
Heartbeat CPU 0 instructions: 210000003 cycles: 888301243 heartbeat IPC: 0.216614 cumulative IPC: 0.235348 (Simulation time: 0 hr 56 min 37 sec) 
Heartbeat CPU 0 instructions: 220000001 cycles: 932387144 heartbeat IPC: 0.22683 cumulative IPC: 0.234945 (Simulation time: 0 hr 59 min 17 sec) 
Heartbeat CPU 0 instructions: 230000003 cycles: 982354869 heartbeat IPC: 0.200129 cumulative IPC: 0.233174 (Simulation time: 1 hr 2 min 15 sec) 
Heartbeat CPU 0 instructions: 240000004 cycles: 1024660105 heartbeat IPC: 0.236377 cumulative IPC: 0.233306 (Simulation time: 1 hr 4 min 45 sec) 
Heartbeat CPU 0 instructions: 250000000 cycles: 1069478916 heartbeat IPC: 0.223121 cumulative IPC: 0.232879 (Simulation time: 1 hr 7 min 27 sec) 
Heartbeat CPU 0 instructions: 260000001 cycles: 1111701570 heartbeat IPC: 0.23684 cumulative IPC: 0.233029 (Simulation time: 1 hr 10 min 1 sec) 
Heartbeat CPU 0 instructions: 270000003 cycles: 1156946727 heartbeat IPC: 0.221018 cumulative IPC: 0.23256 (Simulation time: 1 hr 12 min 48 sec) 
Heartbeat CPU 0 instructions: 280000000 cycles: 1200036215 heartbeat IPC: 0.232075 cumulative IPC: 0.232542 (Simulation time: 1 hr 15 min 31 sec) 
Heartbeat CPU 0 instructions: 290000004 cycles: 1240045598 heartbeat IPC: 0.249941 cumulative IPC: 0.233104 (Simulation time: 1 hr 18 min 6 sec) 
Heartbeat CPU 0 instructions: 300000003 cycles: 1282998842 heartbeat IPC: 0.232811 cumulative IPC: 0.233094 (Simulation time: 1 hr 20 min 56 sec) 
Heartbeat CPU 0 instructions: 310000002 cycles: 1324366574 heartbeat IPC: 0.241734 cumulative IPC: 0.233364 (Simulation time: 1 hr 23 min 34 sec) 
Heartbeat CPU 0 instructions: 320000003 cycles: 1364016006 heartbeat IPC: 0.25221 cumulative IPC: 0.233912 (Simulation time: 1 hr 26 min 6 sec) 
Heartbeat CPU 0 instructions: 330000000 cycles: 1404419239 heartbeat IPC: 0.247505 cumulative IPC: 0.234303 (Simulation time: 1 hr 28 min 45 sec) 
Heartbeat CPU 0 instructions: 340000000 cycles: 1445991812 heartbeat IPC: 0.240543 cumulative IPC: 0.234482 (Simulation time: 1 hr 31 min 35 sec) 
Heartbeat CPU 0 instructions: 350000004 cycles: 1485411254 heartbeat IPC: 0.253682 cumulative IPC: 0.234992 (Simulation time: 1 hr 34 min 16 sec) 
Heartbeat CPU 0 instructions: 360000004 cycles: 1519019945 heartbeat IPC: 0.297542 cumulative IPC: 0.236376 (Simulation time: 1 hr 36 min 39 sec) 
Heartbeat CPU 0 instructions: 370000001 cycles: 1556020688 heartbeat IPC: 0.270265 cumulative IPC: 0.237182 (Simulation time: 1 hr 39 min 14 sec) 
Heartbeat CPU 0 instructions: 380000000 cycles: 1597239605 heartbeat IPC: 0.242607 cumulative IPC: 0.237322 (Simulation time: 1 hr 41 min 51 sec) 
Heartbeat CPU 0 instructions: 390000001 cycles: 1635224244 heartbeat IPC: 0.263264 cumulative IPC: 0.237925 (Simulation time: 1 hr 44 min 26 sec) 
Heartbeat CPU 0 instructions: 400000000 cycles: 1675298031 heartbeat IPC: 0.24954 cumulative IPC: 0.238203 (Simulation time: 1 hr 47 min 9 sec) 
Heartbeat CPU 0 instructions: 410000002 cycles: 1717252831 heartbeat IPC: 0.238352 cumulative IPC: 0.238206 (Simulation time: 1 hr 49 min 53 sec) 
Heartbeat CPU 0 instructions: 420000001 cycles: 1756599314 heartbeat IPC: 0.254152 cumulative IPC: 0.238564 (Simulation time: 1 hr 52 min 33 sec) 
Heartbeat CPU 0 instructions: 430000001 cycles: 1795835516 heartbeat IPC: 0.254867 cumulative IPC: 0.23892 (Simulation time: 1 hr 55 min 4 sec) 
Heartbeat CPU 0 instructions: 440000000 cycles: 1838581528 heartbeat IPC: 0.23394 cumulative IPC: 0.238804 (Simulation time: 1 hr 57 min 54 sec) 
Heartbeat CPU 0 instructions: 450000001 cycles: 1878335485 heartbeat IPC: 0.251547 cumulative IPC: 0.239074 (Simulation time: 2 hr 0 min 33 sec) 
Heartbeat CPU 0 instructions: 460000000 cycles: 1920703259 heartbeat IPC: 0.236028 cumulative IPC: 0.239007 (Simulation time: 2 hr 3 min 27 sec) 
Heartbeat CPU 0 instructions: 470000002 cycles: 1963891219 heartbeat IPC: 0.231546 cumulative IPC: 0.238842 (Simulation time: 2 hr 6 min 14 sec) 
Heartbeat CPU 0 instructions: 480000000 cycles: 2002848281 heartbeat IPC: 0.256693 cumulative IPC: 0.23919 (Simulation time: 2 hr 8 min 59 sec) 
Heartbeat CPU 0 instructions: 490000002 cycles: 2045030298 heartbeat IPC: 0.237068 cumulative IPC: 0.239146 (Simulation time: 2 hr 11 min 41 sec) 
Heartbeat CPU 0 instructions: 500000001 cycles: 2082580104 heartbeat IPC: 0.266313 cumulative IPC: 0.239636 (Simulation time: 2 hr 14 min 15 sec) 
Heartbeat CPU 0 instructions: 510000003 cycles: 2128503113 heartbeat IPC: 0.217756 cumulative IPC: 0.239164 (Simulation time: 2 hr 17 min 17 sec) 
Heartbeat CPU 0 instructions: 520000002 cycles: 2169750067 heartbeat IPC: 0.242442 cumulative IPC: 0.239226 (Simulation time: 2 hr 19 min 57 sec) 
Heartbeat CPU 0 instructions: 530000001 cycles: 2215631671 heartbeat IPC: 0.217952 cumulative IPC: 0.238785 (Simulation time: 2 hr 23 min 4 sec) 
Heartbeat CPU 0 instructions: 540000003 cycles: 2256024199 heartbeat IPC: 0.247571 cumulative IPC: 0.238943 (Simulation time: 2 hr 25 min 42 sec) 
Heartbeat CPU 0 instructions: 550000002 cycles: 2300409394 heartbeat IPC: 0.2253 cumulative IPC: 0.238679 (Simulation time: 2 hr 28 min 37 sec) 
Heartbeat CPU 0 instructions: 560000002 cycles: 2340677178 heartbeat IPC: 0.248337 cumulative IPC: 0.238846 (Simulation time: 2 hr 31 min 16 sec) 
Heartbeat CPU 0 instructions: 570000000 cycles: 2382351728 heartbeat IPC: 0.239955 cumulative IPC: 0.238865 (Simulation time: 2 hr 34 min 3 sec) 
Heartbeat CPU 0 instructions: 580000004 cycles: 2427635408 heartbeat IPC: 0.22083 cumulative IPC: 0.238529 (Simulation time: 2 hr 36 min 59 sec) 
Heartbeat CPU 0 instructions: 590000000 cycles: 2468671355 heartbeat IPC: 0.243689 cumulative IPC: 0.238614 (Simulation time: 2 hr 39 min 41 sec) 
Heartbeat CPU 0 instructions: 600000000 cycles: 2511951949 heartbeat IPC: 0.23105 cumulative IPC: 0.238484 (Simulation time: 2 hr 42 min 29 sec) 
Heartbeat CPU 0 instructions: 610000003 cycles: 2552405248 heartbeat IPC: 0.247199 cumulative IPC: 0.238622 (Simulation time: 2 hr 45 min 0 sec) 
Heartbeat CPU 0 instructions: 620000001 cycles: 2597551142 heartbeat IPC: 0.221504 cumulative IPC: 0.238325 (Simulation time: 2 hr 47 min 56 sec) 
Heartbeat CPU 0 instructions: 630000001 cycles: 2640008995 heartbeat IPC: 0.235528 cumulative IPC: 0.23828 (Simulation time: 2 hr 50 min 38 sec) 
Heartbeat CPU 0 instructions: 640000003 cycles: 2683420640 heartbeat IPC: 0.230353 cumulative IPC: 0.238151 (Simulation time: 2 hr 53 min 28 sec) 
Heartbeat CPU 0 instructions: 650000002 cycles: 2727923777 heartbeat IPC: 0.224703 cumulative IPC: 0.237932 (Simulation time: 2 hr 56 min 12 sec) 
Heartbeat CPU 0 instructions: 660000000 cycles: 2768961150 heartbeat IPC: 0.24368 cumulative IPC: 0.238017 (Simulation time: 2 hr 58 min 42 sec) 
Heartbeat CPU 0 instructions: 670000001 cycles: 2814355464 heartbeat IPC: 0.220292 cumulative IPC: 0.237731 (Simulation time: 3 hr 1 min 30 sec) 
Heartbeat CPU 0 instructions: 680000000 cycles: 2856412675 heartbeat IPC: 0.237771 cumulative IPC: 0.237732 (Simulation time: 3 hr 3 min 59 sec) 
Heartbeat CPU 0 instructions: 690000002 cycles: 2899483897 heartbeat IPC: 0.232174 cumulative IPC: 0.237649 (Simulation time: 3 hr 6 min 31 sec) 
Heartbeat CPU 0 instructions: 700000000 cycles: 2936624411 heartbeat IPC: 0.269248 cumulative IPC: 0.238049 (Simulation time: 3 hr 8 min 40 sec) 
Heartbeat CPU 0 instructions: 710000001 cycles: 2969217571 heartbeat IPC: 0.306813 cumulative IPC: 0.238804 (Simulation time: 3 hr 10 min 40 sec) 
Heartbeat CPU 0 instructions: 720000002 cycles: 2996863275 heartbeat IPC: 0.36172 cumulative IPC: 0.239938 (Simulation time: 3 hr 12 min 27 sec) 
Heartbeat CPU 0 instructions: 730000002 cycles: 3035182722 heartbeat IPC: 0.260964 cumulative IPC: 0.240203 (Simulation time: 3 hr 14 min 41 sec) 
Heartbeat CPU 0 instructions: 740000001 cycles: 3074260141 heartbeat IPC: 0.255902 cumulative IPC: 0.240403 (Simulation time: 3 hr 16 min 53 sec) 
Heartbeat CPU 0 instructions: 750000000 cycles: 3113911637 heartbeat IPC: 0.252197 cumulative IPC: 0.240553 (Simulation time: 3 hr 19 min 10 sec) 
Heartbeat CPU 0 instructions: 760000000 cycles: 3154221835 heartbeat IPC: 0.248076 cumulative IPC: 0.240649 (Simulation time: 3 hr 21 min 18 sec) 
Heartbeat CPU 0 instructions: 770000000 cycles: 3199041592 heartbeat IPC: 0.223116 cumulative IPC: 0.240404 (Simulation time: 3 hr 23 min 40 sec) 
Heartbeat CPU 0 instructions: 780000002 cycles: 3240928664 heartbeat IPC: 0.238737 cumulative IPC: 0.240382 (Simulation time: 3 hr 25 min 58 sec) 
Heartbeat CPU 0 instructions: 790000001 cycles: 3287262245 heartbeat IPC: 0.215826 cumulative IPC: 0.240036 (Simulation time: 3 hr 28 min 27 sec) 
Heartbeat CPU 0 instructions: 800000002 cycles: 3328193422 heartbeat IPC: 0.244313 cumulative IPC: 0.240088 (Simulation time: 3 hr 30 min 39 sec) 
Heartbeat CPU 0 instructions: 810000001 cycles: 3366667506 heartbeat IPC: 0.259915 cumulative IPC: 0.240315 (Simulation time: 3 hr 32 min 50 sec) 
Heartbeat CPU 0 instructions: 820000002 cycles: 3409990561 heartbeat IPC: 0.230824 cumulative IPC: 0.240194 (Simulation time: 3 hr 35 min 2 sec) 
Heartbeat CPU 0 instructions: 830000003 cycles: 3450064748 heartbeat IPC: 0.249537 cumulative IPC: 0.240303 (Simulation time: 3 hr 37 min 10 sec) 
Heartbeat CPU 0 instructions: 840000002 cycles: 3492377402 heartbeat IPC: 0.236336 cumulative IPC: 0.240255 (Simulation time: 3 hr 39 min 19 sec) 
Heartbeat CPU 0 instructions: 850000000 cycles: 3533267970 heartbeat IPC: 0.244555 cumulative IPC: 0.240305 (Simulation time: 3 hr 41 min 30 sec) 
Heartbeat CPU 0 instructions: 860000000 cycles: 3576009524 heartbeat IPC: 0.233964 cumulative IPC: 0.240229 (Simulation time: 3 hr 43 min 39 sec) 
Heartbeat CPU 0 instructions: 870000001 cycles: 3617045516 heartbeat IPC: 0.243689 cumulative IPC: 0.240268 (Simulation time: 3 hr 45 min 55 sec) 
Heartbeat CPU 0 instructions: 880000003 cycles: 3659792896 heartbeat IPC: 0.233933 cumulative IPC: 0.240194 (Simulation time: 3 hr 48 min 8 sec) 
Heartbeat CPU 0 instructions: 890000000 cycles: 3704638639 heartbeat IPC: 0.222987 cumulative IPC: 0.239986 (Simulation time: 3 hr 50 min 23 sec) 
Heartbeat CPU 0 instructions: 900000004 cycles: 3746166771 heartbeat IPC: 0.240801 cumulative IPC: 0.239995 (Simulation time: 3 hr 52 min 35 sec) 
Heartbeat CPU 0 instructions: 910000000 cycles: 3791510875 heartbeat IPC: 0.220536 cumulative IPC: 0.239762 (Simulation time: 3 hr 54 min 52 sec) 
Heartbeat CPU 0 instructions: 920000000 cycles: 3834532516 heartbeat IPC: 0.232441 cumulative IPC: 0.23968 (Simulation time: 3 hr 56 min 58 sec) 
Heartbeat CPU 0 instructions: 930000001 cycles: 3881375141 heartbeat IPC: 0.213481 cumulative IPC: 0.239364 (Simulation time: 3 hr 59 min 17 sec) 
Heartbeat CPU 0 instructions: 940000002 cycles: 3924346319 heartbeat IPC: 0.232714 cumulative IPC: 0.239291 (Simulation time: 4 hr 1 min 27 sec) 
Heartbeat CPU 0 instructions: 950000000 cycles: 3962598701 heartbeat IPC: 0.261422 cumulative IPC: 0.239505 (Simulation time: 4 hr 3 min 18 sec) 
Heartbeat CPU 0 instructions: 960000002 cycles: 4007907187 heartbeat IPC: 0.220709 cumulative IPC: 0.239292 (Simulation time: 4 hr 5 min 38 sec) 
Heartbeat CPU 0 instructions: 970000004 cycles: 4048818738 heartbeat IPC: 0.24443 cumulative IPC: 0.239344 (Simulation time: 4 hr 7 min 40 sec) 
Heartbeat CPU 0 instructions: 980000004 cycles: 4092752731 heartbeat IPC: 0.227614 cumulative IPC: 0.239218 (Simulation time: 4 hr 9 min 47 sec) 
Heartbeat CPU 0 instructions: 990000002 cycles: 4131459464 heartbeat IPC: 0.258353 cumulative IPC: 0.239397 (Simulation time: 4 hr 11 min 38 sec) 
Heartbeat CPU 0 instructions: 1000000001 cycles: 4178356202 heartbeat IPC: 0.213234 cumulative IPC: 0.239104 (Simulation time: 4 hr 13 min 48 sec) 
Finished CPU 0 instructions: 1000000001 cycles: 4181738693 cumulative IPC: 0.239135 (Simulation time: 4 hr 13 min 59 sec) 

ChampSim completed all CPUs

Region of Interest Statistics

CPU 0 cumulative IPC: 0.239135 instructions: 1000000001 cycles: 4181738693
cpu0_DTLB TOTAL     ACCESS:  241090999  HIT:  221741539  MISS:   19349460
cpu0_DTLB LOAD      ACCESS:  145050592  HIT:  128886533  MISS:   16164059
cpu0_DTLB RFO       ACCESS:   96040407  HIT:   92855006  MISS:    3185401
cpu0_DTLB PREFETCH  ACCESS:          0  HIT:          0  MISS:          0
cpu0_DTLB WRITEBACK ACCESS:          0  HIT:          0  MISS:          0
cpu0_DTLB TRANSLATION ACCESS:          0  HIT:          0  MISS:          0
cpu0_DTLB PREFETCH  REQUESTED:          0  ISSUED:          0  USEFUL:          0  USELESS:          0
cpu0_DTLB AVERAGE MISS LATENCY: 11.4124 cycles
cpu0_ITLB TOTAL     ACCESS:  104818187  HIT:  104308656  MISS:     509531
cpu0_ITLB LOAD      ACCESS:  104818187  HIT:  104308656  MISS:     509531
cpu0_ITLB RFO       ACCESS:          0  HIT:          0  MISS:          0
cpu0_ITLB PREFETCH  ACCESS:          0  HIT:          0  MISS:          0
cpu0_ITLB WRITEBACK ACCESS:          0  HIT:          0  MISS:          0
cpu0_ITLB TRANSLATION ACCESS:          0  HIT:          0  MISS:          0
cpu0_ITLB PREFETCH  REQUESTED:          0  ISSUED:          0  USEFUL:          0  USELESS:          0
cpu0_ITLB AVERAGE MISS LATENCY: 9.25422 cycles
cpu0_L1I TOTAL     ACCESS:   91278159  HIT:   91238853  MISS:      39306
cpu0_L1I LOAD      ACCESS:   91278159  HIT:   91238853  MISS:      39306
cpu0_L1I RFO       ACCESS:          0  HIT:          0  MISS:          0
cpu0_L1I PREFETCH  ACCESS:          0  HIT:          0  MISS:          0
cpu0_L1I WRITEBACK ACCESS:          0  HIT:          0  MISS:          0
cpu0_L1I TRANSLATION ACCESS:          0  HIT:          0  MISS:          0
cpu0_L1I PREFETCH  REQUESTED:          0  ISSUED:          0  USEFUL:          0  USELESS:          0
cpu0_L1I AVERAGE MISS LATENCY: 304.477 cycles
cpu0_STLB TOTAL     ACCESS:   19858991  HIT:   15268738  MISS:    4590253
cpu0_STLB LOAD      ACCESS:   16673590  HIT:   13287442  MISS:    3386148
cpu0_STLB RFO       ACCESS:    3185401  HIT:    1981296  MISS:    1204105
cpu0_STLB PREFETCH  ACCESS:          0  HIT:          0  MISS:          0
cpu0_STLB WRITEBACK ACCESS:          0  HIT:          0  MISS:          0
cpu0_STLB TRANSLATION ACCESS:          0  HIT:          0  MISS:          0
cpu0_STLB PREFETCH  REQUESTED:          0  ISSUED:          0  USEFUL:          0  USELESS:          0
cpu0_STLB AVERAGE MISS LATENCY: 9.75761 cycles
cpu0_L1D TOTAL     ACCESS:  469961502  HIT:  428606977  MISS:   41354525
cpu0_L1D LOAD      ACCESS:  159267935  HIT:  138645778  MISS:   20622157
cpu0_L1D RFO       ACCESS:  155171034  HIT:  152669806  MISS:    2501228
cpu0_L1D PREFETCH  ACCESS:  151261411  HIT:  133183949  MISS:   18077462
cpu0_L1D WRITEBACK ACCESS:          0  HIT:          0  MISS:          0
cpu0_L1D TRANSLATION ACCESS:    4261122  HIT:    4107444  MISS:     153678
cpu0_L1D PREFETCH  REQUESTED:  161445738  ISSUED:  161110246  USEFUL:   11769954  USELESS:    7475497
cpu0_L1D AVERAGE MISS LATENCY: 285.505 cycles
cpu0_L2C TOTAL     ACCESS:   54288781  HIT:   20975684  MISS:   33313097
cpu0_L2C LOAD      ACCESS:   19621014  HIT:    4735977  MISS:   14885037
cpu0_L2C RFO       ACCESS:    2362743  HIT:     237624  MISS:    2125119
cpu0_L2C PREFETCH  ACCESS:   20591852  HIT:    4387100  MISS:   16204752
cpu0_L2C WRITEBACK ACCESS:   11559494  HIT:   11486520  MISS:      72974
cpu0_L2C TRANSLATION ACCESS:     153678  HIT:     128463  MISS:      25215
cpu0_L2C PREFETCH  REQUESTED:    1683669  ISSUED:    1492778  USEFUL:      92723  USELESS:    1061339
cpu0_L2C AVERAGE MISS LATENCY: 373.142 cycles
LLC TOTAL     ACCESS:   42934665  HIT:   17361593  MISS:   25573072
LLC LOAD      ACCESS:   14884954  HIT:    3904430  MISS:   10980524
LLC RFO       ACCESS:    2125110  HIT:     480755  MISS:    1644355
LLC PREFETCH  ACCESS:   16263879  HIT:    3344763  MISS:   12919116
LLC WRITEBACK ACCESS:    9635507  HIT:    9608881  MISS:      26626
LLC TRANSLATION ACCESS:      25215  HIT:      22764  MISS:       2451
LLC PREFETCH  REQUESTED:          0  ISSUED:          0  USEFUL:          0  USELESS:          0
LLC AVERAGE MISS LATENCY: 452.742 cycles

DRAM Statistics
 CHANNEL 0
 RQ ROW_BUFFER_HIT:    1259524  ROW_BUFFER_MISS:   24278039
 DBUS AVG_CONGESTED_CYCLE:    3.91961
 WQ ROW_BUFFER_HIT:      45779  ROW_BUFFER_MISS:    6801932  FULL:          0


CPU 0 Branch Prediction Accuracy: 95.3856% MPKI: 11.1376 Average ROB Occupancy at Mispredict: 45.4731
Branch type MPKI
BRANCH_DIRECT_JUMP: 0.000165
BRANCH_INDIRECT: 0.114362
BRANCH_CONDITIONAL: 10.4116
BRANCH_DIRECT_CALL: 0.000243
BRANCH_INDIRECT_CALL: 0.118374
BRANCH_RETURN: 0.492922

