
*** ChampSim Multicore Out-of-Order Simulator ***

Warmup Instructions: 200000000
Simulation Instructions: 1000000000
Number of CPUs: 1
Off-chip DRAM Size: 4 GiB Channels: 1 Width: 64-bit Data Rate: 3200 MT/s

VirtualMemory physical capacity: 8588881920 num_ppages: 2096895
VirtualMemory page size: 4096 log2_page_size: 12

CPU 0 runs tracer/pin/traces/bfs-urand-681B.champsim.xz
Basic BTB sets: 1024 ways: 8 indirect buffer size: 4096 RAS size: 64
cpu0_L1D next line prefetcher
cpu0_L2C IP-based stride prefetcher
WARNING: The extended signature CACHE::prefetch_line(ip, base_addr, pf_addr, fill_this_level, prefetch_metadata) is deprecated.
WARNING: Use CACHE::prefetch_line(pf_addr, fill_this_level, prefetch_metadata) instead.
Heartbeat CPU 0 instructions: 10000001 cycles: 2608324 heartbeat IPC: 3.83388 cumulative IPC: 3.83388 (Simulation time: 0 hr 0 min 31 sec) 
Heartbeat CPU 0 instructions: 20000002 cycles: 5216296 heartbeat IPC: 3.8344 cumulative IPC: 3.83414 (Simulation time: 0 hr 1 min 2 sec) 
Heartbeat CPU 0 instructions: 30000000 cycles: 7823891 heartbeat IPC: 3.83495 cumulative IPC: 3.83441 (Simulation time: 0 hr 1 min 33 sec) 
Heartbeat CPU 0 instructions: 40000002 cycles: 10431552 heartbeat IPC: 3.83486 cumulative IPC: 3.83452 (Simulation time: 0 hr 2 min 4 sec) 
Heartbeat CPU 0 instructions: 50000004 cycles: 13039138 heartbeat IPC: 3.83497 cumulative IPC: 3.83461 (Simulation time: 0 hr 2 min 35 sec) 
Heartbeat CPU 0 instructions: 60000000 cycles: 15647060 heartbeat IPC: 3.83447 cumulative IPC: 3.83459 (Simulation time: 0 hr 3 min 6 sec) 
Heartbeat CPU 0 instructions: 70000000 cycles: 18254575 heartbeat IPC: 3.83507 cumulative IPC: 3.83466 (Simulation time: 0 hr 3 min 37 sec) 
Heartbeat CPU 0 instructions: 80000002 cycles: 20862373 heartbeat IPC: 3.83465 cumulative IPC: 3.83466 (Simulation time: 0 hr 4 min 8 sec) 
Heartbeat CPU 0 instructions: 90000002 cycles: 23469656 heartbeat IPC: 3.83541 cumulative IPC: 3.83474 (Simulation time: 0 hr 4 min 39 sec) 
Heartbeat CPU 0 instructions: 100000003 cycles: 26077419 heartbeat IPC: 3.8347 cumulative IPC: 3.83474 (Simulation time: 0 hr 5 min 10 sec) 
Heartbeat CPU 0 instructions: 110000002 cycles: 28685639 heartbeat IPC: 3.83403 cumulative IPC: 3.83467 (Simulation time: 0 hr 5 min 41 sec) 
Heartbeat CPU 0 instructions: 120000003 cycles: 31293398 heartbeat IPC: 3.83471 cumulative IPC: 3.83467 (Simulation time: 0 hr 6 min 12 sec) 
Heartbeat CPU 0 instructions: 130000000 cycles: 35113745 heartbeat IPC: 2.61756 cumulative IPC: 3.70225 (Simulation time: 0 hr 6 min 50 sec) 
Heartbeat CPU 0 instructions: 140000000 cycles: 45113746 heartbeat IPC: 1 cumulative IPC: 3.10327 (Simulation time: 0 hr 8 min 1 sec) 
Heartbeat CPU 0 instructions: 150000003 cycles: 51467062 heartbeat IPC: 1.57398 cumulative IPC: 2.91449 (Simulation time: 0 hr 8 min 49 sec) 
Heartbeat CPU 0 instructions: 160000003 cycles: 53967062 heartbeat IPC: 4 cumulative IPC: 2.96477 (Simulation time: 0 hr 9 min 13 sec) 
Heartbeat CPU 0 instructions: 170000003 cycles: 56467062 heartbeat IPC: 4 cumulative IPC: 3.0106 (Simulation time: 0 hr 9 min 37 sec) 
Heartbeat CPU 0 instructions: 180000003 cycles: 58967062 heartbeat IPC: 4 cumulative IPC: 3.05255 (Simulation time: 0 hr 10 min 1 sec) 
Heartbeat CPU 0 instructions: 190000003 cycles: 61467062 heartbeat IPC: 4 cumulative IPC: 3.09109 (Simulation time: 0 hr 10 min 25 sec) 
Heartbeat CPU 0 instructions: 200000003 cycles: 63967062 heartbeat IPC: 4 cumulative IPC: 3.12661 (Simulation time: 0 hr 10 min 49 sec) 

Warmup complete CPU 0 instructions: 200000003 cycles: 63967062 (Simulation time: 0 hr 10 min 49 sec) 

Heartbeat CPU 0 instructions: 210000000 cycles: 220508457 heartbeat IPC: 0.0638808 cumulative IPC: 0.0638808 (Simulation time: 0 hr 14 min 41 sec) 
Heartbeat CPU 0 instructions: 220000000 cycles: 377161801 heartbeat IPC: 0.0638352 cumulative IPC: 0.063858 (Simulation time: 0 hr 18 min 32 sec) 
Heartbeat CPU 0 instructions: 230000000 cycles: 534036610 heartbeat IPC: 0.0637451 cumulative IPC: 0.0638203 (Simulation time: 0 hr 22 min 24 sec) 
Heartbeat CPU 0 instructions: 240000001 cycles: 690645782 heartbeat IPC: 0.0638532 cumulative IPC: 0.0638286 (Simulation time: 0 hr 26 min 15 sec) 
Heartbeat CPU 0 instructions: 250000001 cycles: 847408133 heartbeat IPC: 0.0637908 cumulative IPC: 0.063821 (Simulation time: 0 hr 30 min 7 sec) 
Heartbeat CPU 0 instructions: 260000000 cycles: 1004174378 heartbeat IPC: 0.0637892 cumulative IPC: 0.0638157 (Simulation time: 0 hr 33 min 59 sec) 
Heartbeat CPU 0 instructions: 270000001 cycles: 1160518504 heartbeat IPC: 0.0639615 cumulative IPC: 0.0638365 (Simulation time: 0 hr 37 min 55 sec) 
Heartbeat CPU 0 instructions: 280000003 cycles: 1317328560 heartbeat IPC: 0.0637714 cumulative IPC: 0.0638284 (Simulation time: 0 hr 42 min 6 sec) 
Heartbeat CPU 0 instructions: 290000001 cycles: 1473788355 heartbeat IPC: 0.0639142 cumulative IPC: 0.0638379 (Simulation time: 0 hr 46 min 38 sec) 
Heartbeat CPU 0 instructions: 300000002 cycles: 1630603409 heartbeat IPC: 0.0637694 cumulative IPC: 0.063831 (Simulation time: 0 hr 51 min 9 sec) 
Heartbeat CPU 0 instructions: 310000001 cycles: 1787170155 heartbeat IPC: 0.0638705 cumulative IPC: 0.0638346 (Simulation time: 0 hr 55 min 55 sec) 
Heartbeat CPU 0 instructions: 320000000 cycles: 1943946054 heartbeat IPC: 0.0637853 cumulative IPC: 0.0638305 (Simulation time: 1 hr 0 min 59 sec) 
Heartbeat CPU 0 instructions: 330000000 cycles: 2100363099 heartbeat IPC: 0.0639317 cumulative IPC: 0.0638383 (Simulation time: 1 hr 6 min 8 sec) 
Heartbeat CPU 0 instructions: 340000002 cycles: 2257145803 heartbeat IPC: 0.0637826 cumulative IPC: 0.0638343 (Simulation time: 1 hr 11 min 30 sec) 
Heartbeat CPU 0 instructions: 350000001 cycles: 2413970420 heartbeat IPC: 0.0637655 cumulative IPC: 0.0638297 (Simulation time: 1 hr 16 min 59 sec) 
Heartbeat CPU 0 instructions: 360000004 cycles: 2570826695 heartbeat IPC: 0.0637527 cumulative IPC: 0.0638249 (Simulation time: 1 hr 22 min 45 sec) 
Heartbeat CPU 0 instructions: 370000001 cycles: 2727519109 heartbeat IPC: 0.0638193 cumulative IPC: 0.0638245 (Simulation time: 1 hr 28 min 31 sec) 
Heartbeat CPU 0 instructions: 380000004 cycles: 2884109192 heartbeat IPC: 0.063861 cumulative IPC: 0.0638266 (Simulation time: 1 hr 34 min 18 sec) 
Heartbeat CPU 0 instructions: 390000001 cycles: 3040752047 heartbeat IPC: 0.0638395 cumulative IPC: 0.0638272 (Simulation time: 1 hr 40 min 4 sec) 
Heartbeat CPU 0 instructions: 400000001 cycles: 3197434095 heartbeat IPC: 0.0638235 cumulative IPC: 0.0638271 (Simulation time: 1 hr 45 min 29 sec) 
Heartbeat CPU 0 instructions: 410000002 cycles: 3354256409 heartbeat IPC: 0.0637664 cumulative IPC: 0.0638242 (Simulation time: 1 hr 50 min 50 sec) 
Heartbeat CPU 0 instructions: 420000000 cycles: 3511103917 heartbeat IPC: 0.0637562 cumulative IPC: 0.0638211 (Simulation time: 1 hr 56 min 12 sec) 
Heartbeat CPU 0 instructions: 430000000 cycles: 3667923428 heartbeat IPC: 0.0637676 cumulative IPC: 0.0638188 (Simulation time: 2 hr 1 min 35 sec) 
Heartbeat CPU 0 instructions: 440000002 cycles: 3824849653 heartbeat IPC: 0.0637242 cumulative IPC: 0.0638148 (Simulation time: 2 hr 6 min 46 sec) 
Heartbeat CPU 0 instructions: 450000000 cycles: 3981476310 heartbeat IPC: 0.0638461 cumulative IPC: 0.0638161 (Simulation time: 2 hr 11 min 55 sec) 
Heartbeat CPU 0 instructions: 460000002 cycles: 4138478573 heartbeat IPC: 0.0636934 cumulative IPC: 0.0638113 (Simulation time: 2 hr 17 min 5 sec) 
Heartbeat CPU 0 instructions: 470000004 cycles: 4295432662 heartbeat IPC: 0.0637129 cumulative IPC: 0.0638077 (Simulation time: 2 hr 22 min 22 sec) 
Heartbeat CPU 0 instructions: 480000000 cycles: 4452038667 heartbeat IPC: 0.0638545 cumulative IPC: 0.0638094 (Simulation time: 2 hr 27 min 45 sec) 
Heartbeat CPU 0 instructions: 490000002 cycles: 4608829243 heartbeat IPC: 0.0637794 cumulative IPC: 0.0638083 (Simulation time: 2 hr 33 min 9 sec) 
Heartbeat CPU 0 instructions: 500000001 cycles: 4765544458 heartbeat IPC: 0.06381 cumulative IPC: 0.0638084 (Simulation time: 2 hr 38 min 24 sec) 
Heartbeat CPU 0 instructions: 510000000 cycles: 4921851636 heartbeat IPC: 0.0639766 cumulative IPC: 0.0638138 (Simulation time: 2 hr 43 min 45 sec) 
Heartbeat CPU 0 instructions: 520000001 cycles: 5078531989 heartbeat IPC: 0.0638242 cumulative IPC: 0.0638141 (Simulation time: 2 hr 49 min 12 sec) 
Heartbeat CPU 0 instructions: 530000000 cycles: 5235139315 heartbeat IPC: 0.063854 cumulative IPC: 0.0638153 (Simulation time: 2 hr 54 min 42 sec) 
Heartbeat CPU 0 instructions: 540000003 cycles: 5391723954 heartbeat IPC: 0.0638632 cumulative IPC: 0.0638167 (Simulation time: 3 hr 0 min 16 sec) 
Heartbeat CPU 0 instructions: 550000001 cycles: 5548350320 heartbeat IPC: 0.0638462 cumulative IPC: 0.0638176 (Simulation time: 3 hr 5 min 44 sec) 
Heartbeat CPU 0 instructions: 560000003 cycles: 5705162286 heartbeat IPC: 0.0637707 cumulative IPC: 0.0638163 (Simulation time: 3 hr 11 min 12 sec) 
Heartbeat CPU 0 instructions: 570000001 cycles: 5861877566 heartbeat IPC: 0.06381 cumulative IPC: 0.0638161 (Simulation time: 3 hr 16 min 46 sec) 
Heartbeat CPU 0 instructions: 580000004 cycles: 6018311627 heartbeat IPC: 0.0639247 cumulative IPC: 0.0638189 (Simulation time: 3 hr 22 min 17 sec) 
Heartbeat CPU 0 instructions: 590000000 cycles: 6175213467 heartbeat IPC: 0.0637341 cumulative IPC: 0.0638168 (Simulation time: 3 hr 27 min 48 sec) 
Heartbeat CPU 0 instructions: 600000000 cycles: 6331709683 heartbeat IPC: 0.0638993 cumulative IPC: 0.0638188 (Simulation time: 3 hr 33 min 22 sec) 
Heartbeat CPU 0 instructions: 610000002 cycles: 6488690073 heartbeat IPC: 0.0637022 cumulative IPC: 0.063816 (Simulation time: 3 hr 38 min 56 sec) 
Heartbeat CPU 0 instructions: 620000001 cycles: 6645373742 heartbeat IPC: 0.0638229 cumulative IPC: 0.0638161 (Simulation time: 3 hr 44 min 29 sec) 
Heartbeat CPU 0 instructions: 630000000 cycles: 6802004483 heartbeat IPC: 0.0638444 cumulative IPC: 0.0638168 (Simulation time: 3 hr 50 min 4 sec) 
Heartbeat CPU 0 instructions: 640000000 cycles: 6958732415 heartbeat IPC: 0.0638048 cumulative IPC: 0.0638165 (Simulation time: 3 hr 55 min 34 sec) 
Heartbeat CPU 0 instructions: 650000002 cycles: 7115567071 heartbeat IPC: 0.0637614 cumulative IPC: 0.0638153 (Simulation time: 4 hr 0 min 56 sec) 
Heartbeat CPU 0 instructions: 660000000 cycles: 7272310401 heartbeat IPC: 0.0637986 cumulative IPC: 0.0638149 (Simulation time: 4 hr 6 min 21 sec) 
Heartbeat CPU 0 instructions: 670000001 cycles: 7428932912 heartbeat IPC: 0.0638478 cumulative IPC: 0.0638156 (Simulation time: 4 hr 11 min 42 sec) 
Heartbeat CPU 0 instructions: 680000000 cycles: 7585526486 heartbeat IPC: 0.0638596 cumulative IPC: 0.0638166 (Simulation time: 4 hr 16 min 53 sec) 
Heartbeat CPU 0 instructions: 690000002 cycles: 7742384233 heartbeat IPC: 0.063752 cumulative IPC: 0.0638152 (Simulation time: 4 hr 22 min 3 sec) 
Heartbeat CPU 0 instructions: 700000001 cycles: 7899446816 heartbeat IPC: 0.0636689 cumulative IPC: 0.0638123 (Simulation time: 4 hr 26 min 58 sec) 
Heartbeat CPU 0 instructions: 710000000 cycles: 8056181530 heartbeat IPC: 0.0638021 cumulative IPC: 0.0638121 (Simulation time: 4 hr 31 min 51 sec) 
Heartbeat CPU 0 instructions: 720000000 cycles: 8212828360 heartbeat IPC: 0.0638379 cumulative IPC: 0.0638126 (Simulation time: 4 hr 36 min 38 sec) 
Heartbeat CPU 0 instructions: 730000000 cycles: 8369702629 heartbeat IPC: 0.0637453 cumulative IPC: 0.0638113 (Simulation time: 4 hr 41 min 17 sec) 
Heartbeat CPU 0 instructions: 740000000 cycles: 8526298024 heartbeat IPC: 0.0638588 cumulative IPC: 0.0638122 (Simulation time: 4 hr 45 min 51 sec) 
Heartbeat CPU 0 instructions: 750000001 cycles: 8683044948 heartbeat IPC: 0.0637971 cumulative IPC: 0.0638119 (Simulation time: 4 hr 50 min 24 sec) 
Heartbeat CPU 0 instructions: 760000001 cycles: 8839902671 heartbeat IPC: 0.063752 cumulative IPC: 0.0638109 (Simulation time: 4 hr 55 min 1 sec) 
Heartbeat CPU 0 instructions: 770000000 cycles: 8996684454 heartbeat IPC: 0.0637829 cumulative IPC: 0.0638104 (Simulation time: 4 hr 59 min 41 sec) 
Heartbeat CPU 0 instructions: 780000000 cycles: 9153556321 heartbeat IPC: 0.0637463 cumulative IPC: 0.0638093 (Simulation time: 5 hr 4 min 1 sec) 
Heartbeat CPU 0 instructions: 790000000 cycles: 9310346135 heartbeat IPC: 0.0637797 cumulative IPC: 0.0638088 (Simulation time: 5 hr 8 min 33 sec) 
Heartbeat CPU 0 instructions: 800000000 cycles: 9466994026 heartbeat IPC: 0.0638374 cumulative IPC: 0.0638092 (Simulation time: 5 hr 13 min 10 sec) 
Heartbeat CPU 0 instructions: 810000000 cycles: 9623676350 heartbeat IPC: 0.0638234 cumulative IPC: 0.0638095 (Simulation time: 5 hr 17 min 28 sec) 
Heartbeat CPU 0 instructions: 820000000 cycles: 9780543711 heartbeat IPC: 0.0637481 cumulative IPC: 0.0638085 (Simulation time: 5 hr 21 min 55 sec) 
Heartbeat CPU 0 instructions: 830000001 cycles: 9936845754 heartbeat IPC: 0.0639787 cumulative IPC: 0.0638112 (Simulation time: 5 hr 26 min 5 sec) 
Heartbeat CPU 0 instructions: 840000000 cycles: 10093518808 heartbeat IPC: 0.0638272 cumulative IPC: 0.0638114 (Simulation time: 5 hr 30 min 5 sec) 
Heartbeat CPU 0 instructions: 850000002 cycles: 10250324013 heartbeat IPC: 0.0637734 cumulative IPC: 0.0638108 (Simulation time: 5 hr 34 min 2 sec) 
Heartbeat CPU 0 instructions: 860000001 cycles: 10406984708 heartbeat IPC: 0.0638322 cumulative IPC: 0.0638112 (Simulation time: 5 hr 37 min 57 sec) 
Heartbeat CPU 0 instructions: 870000003 cycles: 10563687323 heartbeat IPC: 0.0638152 cumulative IPC: 0.0638112 (Simulation time: 5 hr 41 min 53 sec) 
Heartbeat CPU 0 instructions: 880000000 cycles: 10720317245 heartbeat IPC: 0.0638447 cumulative IPC: 0.0638117 (Simulation time: 5 hr 45 min 46 sec) 
Heartbeat CPU 0 instructions: 890000003 cycles: 10877285627 heartbeat IPC: 0.0637071 cumulative IPC: 0.0638102 (Simulation time: 5 hr 49 min 40 sec) 
Heartbeat CPU 0 instructions: 900000000 cycles: 11033920388 heartbeat IPC: 0.0638428 cumulative IPC: 0.0638107 (Simulation time: 5 hr 53 min 33 sec) 
Heartbeat CPU 0 instructions: 910000000 cycles: 11190792851 heartbeat IPC: 0.0637461 cumulative IPC: 0.0638098 (Simulation time: 5 hr 57 min 25 sec) 
Heartbeat CPU 0 instructions: 920000001 cycles: 11347435503 heartbeat IPC: 0.0638396 cumulative IPC: 0.0638102 (Simulation time: 6 hr 1 min 17 sec) 
Heartbeat CPU 0 instructions: 930000004 cycles: 11504251938 heartbeat IPC: 0.0637688 cumulative IPC: 0.0638096 (Simulation time: 6 hr 5 min 13 sec) 
Heartbeat CPU 0 instructions: 940000000 cycles: 11661051918 heartbeat IPC: 0.0637755 cumulative IPC: 0.0638091 (Simulation time: 6 hr 9 min 15 sec) 
Heartbeat CPU 0 instructions: 950000000 cycles: 11817900944 heartbeat IPC: 0.0637556 cumulative IPC: 0.0638084 (Simulation time: 6 hr 13 min 44 sec) 
Heartbeat CPU 0 instructions: 960000001 cycles: 11974572323 heartbeat IPC: 0.0638279 cumulative IPC: 0.0638087 (Simulation time: 6 hr 18 min 42 sec) 
Heartbeat CPU 0 instructions: 970000004 cycles: 12131340153 heartbeat IPC: 0.0637886 cumulative IPC: 0.0638084 (Simulation time: 6 hr 24 min 5 sec) 
Heartbeat CPU 0 instructions: 980000000 cycles: 12287866639 heartbeat IPC: 0.0638869 cumulative IPC: 0.0638094 (Simulation time: 6 hr 29 min 38 sec) 
Heartbeat CPU 0 instructions: 990000000 cycles: 12444414662 heartbeat IPC: 0.0638782 cumulative IPC: 0.0638103 (Simulation time: 6 hr 35 min 1 sec) 
Heartbeat CPU 0 instructions: 1000000001 cycles: 12601516320 heartbeat IPC: 0.0636531 cumulative IPC: 0.0638083 (Simulation time: 6 hr 40 min 35 sec) 
Heartbeat CPU 0 instructions: 1010000003 cycles: 12757993144 heartbeat IPC: 0.0639072 cumulative IPC: 0.0638095 (Simulation time: 6 hr 46 min 11 sec) 
Heartbeat CPU 0 instructions: 1020000000 cycles: 12914599411 heartbeat IPC: 0.0638544 cumulative IPC: 0.0638101 (Simulation time: 6 hr 51 min 46 sec) 
Heartbeat CPU 0 instructions: 1030000000 cycles: 13071246197 heartbeat IPC: 0.0638379 cumulative IPC: 0.0638104 (Simulation time: 6 hr 57 min 11 sec) 
Heartbeat CPU 0 instructions: 1040000002 cycles: 13227609933 heartbeat IPC: 0.0639535 cumulative IPC: 0.0638121 (Simulation time: 7 hr 2 min 45 sec) 
Heartbeat CPU 0 instructions: 1050000002 cycles: 13384344990 heartbeat IPC: 0.0638019 cumulative IPC: 0.063812 (Simulation time: 7 hr 8 min 13 sec) 
Heartbeat CPU 0 instructions: 1060000001 cycles: 13540890321 heartbeat IPC: 0.0638793 cumulative IPC: 0.0638128 (Simulation time: 7 hr 13 min 46 sec) 
Heartbeat CPU 0 instructions: 1070000000 cycles: 13697679911 heartbeat IPC: 0.0637797 cumulative IPC: 0.0638124 (Simulation time: 7 hr 19 min 23 sec) 
Heartbeat CPU 0 instructions: 1080000000 cycles: 13854391522 heartbeat IPC: 0.0638115 cumulative IPC: 0.0638124 (Simulation time: 7 hr 25 min 1 sec) 
Heartbeat CPU 0 instructions: 1090000001 cycles: 14010964111 heartbeat IPC: 0.0638681 cumulative IPC: 0.063813 (Simulation time: 7 hr 30 min 36 sec) 
Heartbeat CPU 0 instructions: 1100000000 cycles: 14167683575 heartbeat IPC: 0.0638083 cumulative IPC: 0.063813 (Simulation time: 7 hr 35 min 59 sec) 
Heartbeat CPU 0 instructions: 1110000000 cycles: 14324343335 heartbeat IPC: 0.0638326 cumulative IPC: 0.0638132 (Simulation time: 7 hr 41 min 10 sec) 
Heartbeat CPU 0 instructions: 1120000000 cycles: 14481133777 heartbeat IPC: 0.0637794 cumulative IPC: 0.0638128 (Simulation time: 7 hr 46 min 17 sec) 
Heartbeat CPU 0 instructions: 1130000000 cycles: 14637809695 heartbeat IPC: 0.063826 cumulative IPC: 0.063813 (Simulation time: 7 hr 51 min 4 sec) 
Heartbeat CPU 0 instructions: 1140000000 cycles: 14794439416 heartbeat IPC: 0.0638448 cumulative IPC: 0.0638133 (Simulation time: 7 hr 55 min 36 sec) 
Heartbeat CPU 0 instructions: 1150000000 cycles: 14950949912 heartbeat IPC: 0.0638935 cumulative IPC: 0.0638141 (Simulation time: 7 hr 59 min 56 sec) 
Heartbeat CPU 0 instructions: 1160000001 cycles: 15107572672 heartbeat IPC: 0.0638477 cumulative IPC: 0.0638145 (Simulation time: 8 hr 4 min 25 sec) 
Heartbeat CPU 0 instructions: 1170000000 cycles: 15260499250 heartbeat IPC: 0.0653908 cumulative IPC: 0.0638304 (Simulation time: 8 hr 9 min 1 sec) 
Heartbeat CPU 0 instructions: 1180000000 cycles: 15417362076 heartbeat IPC: 0.06375 cumulative IPC: 0.0638295 (Simulation time: 8 hr 13 min 54 sec) 
Heartbeat CPU 0 instructions: 1190000000 cycles: 15574053550 heartbeat IPC: 0.0638197 cumulative IPC: 0.0638294 (Simulation time: 8 hr 19 min 11 sec) 
*** Reached end of trace: tracer/pin/traces/bfs-urand-681B.champsim.xz
Heartbeat CPU 0 instructions: 1200000000 cycles: 15731008604 heartbeat IPC: 0.0637125 cumulative IPC: 0.0638283 (Simulation time: 8 hr 24 min 32 sec) 
Finished CPU 0 instructions: 1000000002 cycles: 15667041543 cumulative IPC: 0.0638283 (Simulation time: 8 hr 24 min 32 sec) 

ChampSim completed all CPUs

Region of Interest Statistics

CPU 0 cumulative IPC: 0.0638283 instructions: 1000000002 cycles: 15667041543
cpu0_DTLB TOTAL     ACCESS:  243606574  HIT:  179049850  MISS:   64556724
cpu0_DTLB LOAD      ACCESS:  209316519  HIT:  144834426  MISS:   64482093
cpu0_DTLB RFO       ACCESS:   34290055  HIT:   34215424  MISS:      74631
cpu0_DTLB PREFETCH  ACCESS:          0  HIT:          0  MISS:          0
cpu0_DTLB WRITEBACK ACCESS:          0  HIT:          0  MISS:          0
cpu0_DTLB TRANSLATION ACCESS:          0  HIT:          0  MISS:          0
cpu0_DTLB PREFETCH  REQUESTED:          0  ISSUED:          0  USEFUL:          0  USELESS:          0
cpu0_DTLB AVERAGE MISS LATENCY: 22.2963 cycles
cpu0_ITLB TOTAL     ACCESS:  105213981  HIT:  105213981  MISS:          0
cpu0_ITLB LOAD      ACCESS:  105213981  HIT:  105213981  MISS:          0
cpu0_ITLB RFO       ACCESS:          0  HIT:          0  MISS:          0
cpu0_ITLB PREFETCH  ACCESS:          0  HIT:          0  MISS:          0
cpu0_ITLB WRITEBACK ACCESS:          0  HIT:          0  MISS:          0
cpu0_ITLB TRANSLATION ACCESS:          0  HIT:          0  MISS:          0
cpu0_ITLB PREFETCH  REQUESTED:          0  ISSUED:          0  USEFUL:          0  USELESS:          0
cpu0_ITLB AVERAGE MISS LATENCY: -nan cycles
cpu0_STLB TOTAL     ACCESS:   64556724  HIT:   56954272  MISS:    7602452
cpu0_STLB LOAD      ACCESS:   64482093  HIT:   56884988  MISS:    7597105
cpu0_STLB RFO       ACCESS:      74631  HIT:      69284  MISS:       5347
cpu0_STLB PREFETCH  ACCESS:          0  HIT:          0  MISS:          0
cpu0_STLB WRITEBACK ACCESS:          0  HIT:          0  MISS:          0
cpu0_STLB TRANSLATION ACCESS:          0  HIT:          0  MISS:          0
cpu0_STLB PREFETCH  REQUESTED:          0  ISSUED:          0  USEFUL:          0  USELESS:          0
cpu0_STLB AVERAGE MISS LATENCY: 110.289 cycles
cpu0_L1D TOTAL     ACCESS:  470496140  HIT:  299849979  MISS:  170646161
cpu0_L1D LOAD      ACCESS:  221317649  HIT:  139017916  MISS:   82299733
cpu0_L1D RFO       ACCESS:   34310780  HIT:   34310780  MISS:          0
cpu0_L1D PREFETCH  ACCESS:  209989566  HIT:  121765287  MISS:   88224279
cpu0_L1D WRITEBACK ACCESS:          0  HIT:          0  MISS:          0
cpu0_L1D TRANSLATION ACCESS:    4878145  HIT:    4755996  MISS:     122149
cpu0_L1D PREFETCH  REQUESTED:  222111064  ISSUED:  218886946  USEFUL:   18516299  USELESS:   70907918
cpu0_L1D AVERAGE MISS LATENCY: 362.486 cycles
cpu0_L2C TOTAL     ACCESS:  181226641  HIT:   13097875  MISS:  168128766
cpu0_L2C LOAD      ACCESS:   81099808  HIT:    2813428  MISS:   78286380
cpu0_L2C RFO       ACCESS:          0  HIT:          0  MISS:          0
cpu0_L2C PREFETCH  ACCESS:   98508165  HIT:    8792149  MISS:   89716016
cpu0_L2C WRITEBACK ACCESS:    1496519  HIT:    1451929  MISS:      44590
cpu0_L2C TRANSLATION ACCESS:     122149  HIT:      40369  MISS:      81780
cpu0_L2C PREFETCH  REQUESTED:   10599688  ISSUED:    9310833  USEFUL:    1982574  USELESS:    1115493
cpu0_L2C AVERAGE MISS LATENCY: 368.613 cycles
LLC TOTAL     ACCESS:  169647246  HIT:   48685781  MISS:  120961465
LLC LOAD      ACCESS:   78286380  HIT:   23561061  MISS:   54725319
LLC RFO       ACCESS:          0  HIT:          0  MISS:          0
LLC PREFETCH  ACCESS:   89782558  HIT:   23551079  MISS:   66231479
LLC WRITEBACK ACCESS:    1496528  HIT:    1495435  MISS:       1093
LLC TRANSLATION ACCESS:      81780  HIT:      78206  MISS:       3574
LLC PREFETCH  REQUESTED:          0  ISSUED:          0  USEFUL:          0  USELESS:          0
LLC AVERAGE MISS LATENCY: 475.316 cycles

DRAM Statistics
 CHANNEL 0
 RQ ROW_BUFFER_HIT:    1035346  ROW_BUFFER_MISS:  119924989
 DBUS AVG_CONGESTED_CYCLE:    3.83717
 WQ ROW_BUFFER_HIT:     252171  ROW_BUFFER_MISS:    1244263  FULL:          0


CPU 0 Branch Prediction Accuracy: 84.0708% MPKI: 31.666 Average ROB Occupancy at Mispredict: 12.4199
Branch type MPKI
BRANCH_DIRECT_JUMP: 0
BRANCH_INDIRECT: 0
BRANCH_CONDITIONAL: 31.666
BRANCH_DIRECT_CALL: 0
BRANCH_INDIRECT_CALL: 0
BRANCH_RETURN: 0

