
*** ChampSim Multicore Out-of-Order Simulator ***

Warmup Instructions: 1000000
Simulation Instructions: 1000000000
Number of CPUs: 1
Off-chip DRAM Size: 4 GiB Channels: 1 Width: 64-bit Data Rate: 3200 MT/s

VirtualMemory physical capacity: 8588881920 num_ppages: 2096895
VirtualMemory page size: 4096 log2_page_size: 12

CPU 0 runs tracer/pin/traces/spec2k17/628.pop2_s-17B.champsimtrace.xz
Basic BTB sets: 1024 ways: 8 indirect buffer size: 4096 RAS size: 64
cpu0_L1D next line prefetcher
cpu0_L2C IP-based stride prefetcher
WARNING: The extended signature CACHE::prefetch_line(ip, base_addr, pf_addr, fill_this_level, prefetch_metadata) is deprecated.
WARNING: Use CACHE::prefetch_line(pf_addr, fill_this_level, prefetch_metadata) instead.

Warmup complete CPU 0 instructions: 1000004 cycles: 281420 (Simulation time: 0 hr 0 min 3 sec) 

Heartbeat CPU 0 instructions: 10000003 cycles: 5911532 heartbeat IPC: 1.69161 cumulative IPC: 1.59855 (Simulation time: 0 hr 0 min 45 sec) 
Heartbeat CPU 0 instructions: 20000004 cycles: 12599318 heartbeat IPC: 1.49526 cumulative IPC: 1.54247 (Simulation time: 0 hr 1 min 36 sec) 
Heartbeat CPU 0 instructions: 30000000 cycles: 19295141 heartbeat IPC: 1.49347 cumulative IPC: 1.52521 (Simulation time: 0 hr 2 min 25 sec) 
Heartbeat CPU 0 instructions: 40000002 cycles: 25985468 heartbeat IPC: 1.4947 cumulative IPC: 1.51727 (Simulation time: 0 hr 3 min 16 sec) 
Heartbeat CPU 0 instructions: 50000001 cycles: 32656049 heartbeat IPC: 1.49912 cumulative IPC: 1.51353 (Simulation time: 0 hr 4 min 7 sec) 
Heartbeat CPU 0 instructions: 60000002 cycles: 39278353 heartbeat IPC: 1.51005 cumulative IPC: 1.51294 (Simulation time: 0 hr 4 min 59 sec) 
Heartbeat CPU 0 instructions: 70000003 cycles: 45752578 heartbeat IPC: 1.54459 cumulative IPC: 1.51745 (Simulation time: 0 hr 5 min 52 sec) 
Heartbeat CPU 0 instructions: 80000001 cycles: 51626242 heartbeat IPC: 1.70251 cumulative IPC: 1.53862 (Simulation time: 0 hr 6 min 41 sec) 
Heartbeat CPU 0 instructions: 90000000 cycles: 58279892 heartbeat IPC: 1.50293 cumulative IPC: 1.53452 (Simulation time: 0 hr 7 min 33 sec) 
Heartbeat CPU 0 instructions: 100000000 cycles: 66509516 heartbeat IPC: 1.21512 cumulative IPC: 1.49483 (Simulation time: 0 hr 8 min 35 sec) 
Heartbeat CPU 0 instructions: 110000001 cycles: 76921806 heartbeat IPC: 0.960404 cumulative IPC: 1.42223 (Simulation time: 0 hr 9 min 48 sec) 
Heartbeat CPU 0 instructions: 120000000 cycles: 87407789 heartbeat IPC: 0.953654 cumulative IPC: 1.36583 (Simulation time: 0 hr 10 min 58 sec) 
Heartbeat CPU 0 instructions: 130000004 cycles: 93798229 heartbeat IPC: 1.56484 cumulative IPC: 1.37943 (Simulation time: 0 hr 11 min 46 sec) 
Heartbeat CPU 0 instructions: 140000004 cycles: 101682265 heartbeat IPC: 1.26839 cumulative IPC: 1.3708 (Simulation time: 0 hr 12 min 36 sec) 
Heartbeat CPU 0 instructions: 150000002 cycles: 107566139 heartbeat IPC: 1.69956 cumulative IPC: 1.38883 (Simulation time: 0 hr 13 min 17 sec) 
Heartbeat CPU 0 instructions: 160000002 cycles: 115200237 heartbeat IPC: 1.30991 cumulative IPC: 1.38359 (Simulation time: 0 hr 14 min 6 sec) 
Heartbeat CPU 0 instructions: 170000001 cycles: 120938744 heartbeat IPC: 1.74261 cumulative IPC: 1.40066 (Simulation time: 0 hr 14 min 52 sec) 
Heartbeat CPU 0 instructions: 180000003 cycles: 128977530 heartbeat IPC: 1.24397 cumulative IPC: 1.39087 (Simulation time: 0 hr 15 min 54 sec) 
Heartbeat CPU 0 instructions: 190000000 cycles: 135957840 heartbeat IPC: 1.4326 cumulative IPC: 1.39302 (Simulation time: 0 hr 16 min 54 sec) 
Heartbeat CPU 0 instructions: 200000003 cycles: 142600342 heartbeat IPC: 1.50546 cumulative IPC: 1.39827 (Simulation time: 0 hr 17 min 53 sec) 
Heartbeat CPU 0 instructions: 210000001 cycles: 149222429 heartbeat IPC: 1.5101 cumulative IPC: 1.40324 (Simulation time: 0 hr 18 min 51 sec) 
Heartbeat CPU 0 instructions: 220000004 cycles: 155814309 heartbeat IPC: 1.51702 cumulative IPC: 1.40806 (Simulation time: 0 hr 19 min 49 sec) 
Heartbeat CPU 0 instructions: 230000001 cycles: 162516874 heartbeat IPC: 1.49197 cumulative IPC: 1.41153 (Simulation time: 0 hr 20 min 47 sec) 
Heartbeat CPU 0 instructions: 240000000 cycles: 169116795 heartbeat IPC: 1.51517 cumulative IPC: 1.41558 (Simulation time: 0 hr 21 min 45 sec) 
Heartbeat CPU 0 instructions: 250000003 cycles: 175454901 heartbeat IPC: 1.57776 cumulative IPC: 1.42145 (Simulation time: 0 hr 22 min 40 sec) 
Heartbeat CPU 0 instructions: 260000002 cycles: 181981745 heartbeat IPC: 1.53213 cumulative IPC: 1.42542 (Simulation time: 0 hr 23 min 35 sec) 
Heartbeat CPU 0 instructions: 270000000 cycles: 188219065 heartbeat IPC: 1.60325 cumulative IPC: 1.43133 (Simulation time: 0 hr 24 min 26 sec) 
Heartbeat CPU 0 instructions: 280000004 cycles: 197033472 heartbeat IPC: 1.13451 cumulative IPC: 1.41803 (Simulation time: 0 hr 25 min 35 sec) 
Heartbeat CPU 0 instructions: 290000002 cycles: 207459732 heartbeat IPC: 0.959117 cumulative IPC: 1.39493 (Simulation time: 0 hr 26 min 46 sec) 
Heartbeat CPU 0 instructions: 300000001 cycles: 218047692 heartbeat IPC: 0.944469 cumulative IPC: 1.37303 (Simulation time: 0 hr 27 min 53 sec) 
Heartbeat CPU 0 instructions: 310000001 cycles: 224724433 heartbeat IPC: 1.49774 cumulative IPC: 1.37674 (Simulation time: 0 hr 28 min 43 sec) 
Heartbeat CPU 0 instructions: 320000004 cycles: 233046657 heartbeat IPC: 1.2016 cumulative IPC: 1.37048 (Simulation time: 0 hr 29 min 36 sec) 
Heartbeat CPU 0 instructions: 330000000 cycles: 239885085 heartbeat IPC: 1.46232 cumulative IPC: 1.3731 (Simulation time: 0 hr 30 min 21 sec) 
Heartbeat CPU 0 instructions: 340000001 cycles: 248385436 heartbeat IPC: 1.17642 cumulative IPC: 1.36636 (Simulation time: 0 hr 31 min 15 sec) 
Heartbeat CPU 0 instructions: 350000001 cycles: 254004480 heartbeat IPC: 1.77966 cumulative IPC: 1.37552 (Simulation time: 0 hr 31 min 59 sec) 
Heartbeat CPU 0 instructions: 360000003 cycles: 261819941 heartbeat IPC: 1.27952 cumulative IPC: 1.37265 (Simulation time: 0 hr 32 min 58 sec) 
Heartbeat CPU 0 instructions: 370000003 cycles: 268911593 heartbeat IPC: 1.41011 cumulative IPC: 1.37364 (Simulation time: 0 hr 33 min 58 sec) 
Heartbeat CPU 0 instructions: 380000004 cycles: 275587084 heartbeat IPC: 1.49802 cumulative IPC: 1.37665 (Simulation time: 0 hr 34 min 56 sec) 
Heartbeat CPU 0 instructions: 390000001 cycles: 282270325 heartbeat IPC: 1.49628 cumulative IPC: 1.37949 (Simulation time: 0 hr 35 min 54 sec) 
Heartbeat CPU 0 instructions: 400000000 cycles: 288964154 heartbeat IPC: 1.49391 cumulative IPC: 1.38214 (Simulation time: 0 hr 36 min 53 sec) 
Heartbeat CPU 0 instructions: 410000000 cycles: 295667489 heartbeat IPC: 1.49179 cumulative IPC: 1.38463 (Simulation time: 0 hr 37 min 49 sec) 
Heartbeat CPU 0 instructions: 420000001 cycles: 302312220 heartbeat IPC: 1.50495 cumulative IPC: 1.38728 (Simulation time: 0 hr 38 min 47 sec) 
Heartbeat CPU 0 instructions: 430000004 cycles: 308917704 heartbeat IPC: 1.51389 cumulative IPC: 1.38999 (Simulation time: 0 hr 39 min 44 sec) 
Heartbeat CPU 0 instructions: 440000001 cycles: 314575071 heartbeat IPC: 1.76761 cumulative IPC: 1.39678 (Simulation time: 0 hr 40 min 34 sec) 
Heartbeat CPU 0 instructions: 450000002 cycles: 321952872 heartbeat IPC: 1.35542 cumulative IPC: 1.39583 (Simulation time: 0 hr 41 min 31 sec) 
Heartbeat CPU 0 instructions: 460000003 cycles: 329736401 heartbeat IPC: 1.28476 cumulative IPC: 1.39321 (Simulation time: 0 hr 42 min 34 sec) 
Heartbeat CPU 0 instructions: 470000000 cycles: 340217026 heartbeat IPC: 0.954141 cumulative IPC: 1.37967 (Simulation time: 0 hr 43 min 49 sec) 
Heartbeat CPU 0 instructions: 480000002 cycles: 352073728 heartbeat IPC: 0.843405 cumulative IPC: 1.3616 (Simulation time: 0 hr 45 min 8 sec) 
Heartbeat CPU 0 instructions: 490000001 cycles: 357502486 heartbeat IPC: 1.84204 cumulative IPC: 1.3689 (Simulation time: 0 hr 45 min 51 sec) 
Heartbeat CPU 0 instructions: 500000004 cycles: 367118621 heartbeat IPC: 1.03992 cumulative IPC: 1.36028 (Simulation time: 0 hr 46 min 53 sec) 
Heartbeat CPU 0 instructions: 510000002 cycles: 372931825 heartbeat IPC: 1.72022 cumulative IPC: 1.36589 (Simulation time: 0 hr 47 min 34 sec) 
Heartbeat CPU 0 instructions: 520000002 cycles: 382342404 heartbeat IPC: 1.06263 cumulative IPC: 1.35842 (Simulation time: 0 hr 48 min 34 sec) 
Heartbeat CPU 0 instructions: 530000002 cycles: 387599224 heartbeat IPC: 1.90229 cumulative IPC: 1.3658 (Simulation time: 0 hr 49 min 15 sec) 
Heartbeat CPU 0 instructions: 540000000 cycles: 394872368 heartbeat IPC: 1.37492 cumulative IPC: 1.36597 (Simulation time: 0 hr 50 min 8 sec) 
Heartbeat CPU 0 instructions: 550000000 cycles: 402171758 heartbeat IPC: 1.36998 cumulative IPC: 1.36604 (Simulation time: 0 hr 51 min 9 sec) 
Heartbeat CPU 0 instructions: 560000004 cycles: 408870625 heartbeat IPC: 1.49279 cumulative IPC: 1.36812 (Simulation time: 0 hr 52 min 8 sec) 
Heartbeat CPU 0 instructions: 570000001 cycles: 415416218 heartbeat IPC: 1.52775 cumulative IPC: 1.37064 (Simulation time: 0 hr 53 min 7 sec) 
Heartbeat CPU 0 instructions: 580000002 cycles: 421954175 heartbeat IPC: 1.52953 cumulative IPC: 1.3731 (Simulation time: 0 hr 54 min 6 sec) 
Heartbeat CPU 0 instructions: 590000002 cycles: 428555743 heartbeat IPC: 1.51479 cumulative IPC: 1.37529 (Simulation time: 0 hr 55 min 5 sec) 
Heartbeat CPU 0 instructions: 600000002 cycles: 435079795 heartbeat IPC: 1.53279 cumulative IPC: 1.37765 (Simulation time: 0 hr 56 min 3 sec) 
Heartbeat CPU 0 instructions: 610000001 cycles: 441767496 heartbeat IPC: 1.49528 cumulative IPC: 1.37943 (Simulation time: 0 hr 57 min 2 sec) 
Heartbeat CPU 0 instructions: 620000002 cycles: 446791489 heartbeat IPC: 1.99045 cumulative IPC: 1.38631 (Simulation time: 0 hr 57 min 49 sec) 
Heartbeat CPU 0 instructions: 630000001 cycles: 454951266 heartbeat IPC: 1.22552 cumulative IPC: 1.38342 (Simulation time: 0 hr 58 min 52 sec) 
Heartbeat CPU 0 instructions: 640000001 cycles: 461165585 heartbeat IPC: 1.60919 cumulative IPC: 1.38647 (Simulation time: 0 hr 59 min 43 sec) 
Heartbeat CPU 0 instructions: 650000003 cycles: 472230754 heartbeat IPC: 0.903737 cumulative IPC: 1.37515 (Simulation time: 1 hr 1 min 0 sec) 
Heartbeat CPU 0 instructions: 660000003 cycles: 485435691 heartbeat IPC: 0.757293 cumulative IPC: 1.35833 (Simulation time: 1 hr 2 min 30 sec) 
Heartbeat CPU 0 instructions: 670000003 cycles: 490715218 heartbeat IPC: 1.89411 cumulative IPC: 1.3641 (Simulation time: 1 hr 3 min 12 sec) 
Heartbeat CPU 0 instructions: 680000004 cycles: 501254024 heartbeat IPC: 0.948874 cumulative IPC: 1.35536 (Simulation time: 1 hr 4 min 18 sec) 
Heartbeat CPU 0 instructions: 690000000 cycles: 505356771 heartbeat IPC: 2.43739 cumulative IPC: 1.36415 (Simulation time: 1 hr 4 min 49 sec) 
Heartbeat CPU 0 instructions: 700000001 cycles: 512992919 heartbeat IPC: 1.30956 cumulative IPC: 1.36334 (Simulation time: 1 hr 5 min 41 sec) 
Heartbeat CPU 0 instructions: 710000002 cycles: 521682341 heartbeat IPC: 1.15082 cumulative IPC: 1.3598 (Simulation time: 1 hr 6 min 36 sec) 
Heartbeat CPU 0 instructions: 720000002 cycles: 527560542 heartbeat IPC: 1.7012 cumulative IPC: 1.3636 (Simulation time: 1 hr 7 min 26 sec) 
Heartbeat CPU 0 instructions: 730000001 cycles: 536029428 heartbeat IPC: 1.18079 cumulative IPC: 1.36071 (Simulation time: 1 hr 8 min 32 sec) 
Heartbeat CPU 0 instructions: 740000000 cycles: 542697388 heartbeat IPC: 1.49971 cumulative IPC: 1.36242 (Simulation time: 1 hr 9 min 33 sec) 
Heartbeat CPU 0 instructions: 750000002 cycles: 549287681 heartbeat IPC: 1.51738 cumulative IPC: 1.36428 (Simulation time: 1 hr 10 min 32 sec) 
Heartbeat CPU 0 instructions: 760000000 cycles: 555872988 heartbeat IPC: 1.51853 cumulative IPC: 1.36611 (Simulation time: 1 hr 11 min 31 sec) 
Heartbeat CPU 0 instructions: 770000001 cycles: 562456609 heartbeat IPC: 1.51892 cumulative IPC: 1.3679 (Simulation time: 1 hr 12 min 30 sec) 
Heartbeat CPU 0 instructions: 780000003 cycles: 569157581 heartbeat IPC: 1.49232 cumulative IPC: 1.36937 (Simulation time: 1 hr 13 min 28 sec) 
Heartbeat CPU 0 instructions: 790000000 cycles: 575831125 heartbeat IPC: 1.49845 cumulative IPC: 1.37086 (Simulation time: 1 hr 14 min 26 sec) 
Heartbeat CPU 0 instructions: 800000004 cycles: 581588587 heartbeat IPC: 1.73688 cumulative IPC: 1.37449 (Simulation time: 1 hr 15 min 19 sec) 
Heartbeat CPU 0 instructions: 810000001 cycles: 589126207 heartbeat IPC: 1.32668 cumulative IPC: 1.37388 (Simulation time: 1 hr 16 min 19 sec) 
Heartbeat CPU 0 instructions: 820000002 cycles: 594968008 heartbeat IPC: 1.7118 cumulative IPC: 1.3772 (Simulation time: 1 hr 17 min 8 sec) 
Heartbeat CPU 0 instructions: 830000002 cycles: 604570638 heartbeat IPC: 1.04138 cumulative IPC: 1.37186 (Simulation time: 1 hr 18 min 18 sec) 
Heartbeat CPU 0 instructions: 840000001 cycles: 614589511 heartbeat IPC: 0.998116 cumulative IPC: 1.36576 (Simulation time: 1 hr 19 min 28 sec) 
Heartbeat CPU 0 instructions: 850000002 cycles: 624742774 heartbeat IPC: 0.984905 cumulative IPC: 1.35957 (Simulation time: 1 hr 20 min 30 sec) 
Heartbeat CPU 0 instructions: 860000000 cycles: 631737922 heartbeat IPC: 1.42956 cumulative IPC: 1.36035 (Simulation time: 1 hr 21 min 21 sec) 
Heartbeat CPU 0 instructions: 870000002 cycles: 639921571 heartbeat IPC: 1.22195 cumulative IPC: 1.35858 (Simulation time: 1 hr 22 min 10 sec) 
Heartbeat CPU 0 instructions: 880000000 cycles: 647121395 heartbeat IPC: 1.38892 cumulative IPC: 1.35891 (Simulation time: 1 hr 22 min 57 sec) 
Heartbeat CPU 0 instructions: 890000001 cycles: 655862046 heartbeat IPC: 1.14408 cumulative IPC: 1.35605 (Simulation time: 1 hr 23 min 49 sec) 
Heartbeat CPU 0 instructions: 900000000 cycles: 661514580 heartbeat IPC: 1.76912 cumulative IPC: 1.35958 (Simulation time: 1 hr 24 min 31 sec) 
Heartbeat CPU 0 instructions: 910000000 cycles: 669254758 heartbeat IPC: 1.29196 cumulative IPC: 1.3588 (Simulation time: 1 hr 25 min 24 sec) 
Heartbeat CPU 0 instructions: 920000004 cycles: 676296634 heartbeat IPC: 1.42008 cumulative IPC: 1.35944 (Simulation time: 1 hr 26 min 19 sec) 
Heartbeat CPU 0 instructions: 930000000 cycles: 682917254 heartbeat IPC: 1.51043 cumulative IPC: 1.3609 (Simulation time: 1 hr 27 min 12 sec) 
Heartbeat CPU 0 instructions: 940000002 cycles: 689405308 heartbeat IPC: 1.54129 cumulative IPC: 1.3626 (Simulation time: 1 hr 28 min 6 sec) 
Heartbeat CPU 0 instructions: 950000001 cycles: 695909426 heartbeat IPC: 1.53749 cumulative IPC: 1.36423 (Simulation time: 1 hr 28 min 59 sec) 
Heartbeat CPU 0 instructions: 960000001 cycles: 702411814 heartbeat IPC: 1.5379 cumulative IPC: 1.36584 (Simulation time: 1 hr 29 min 50 sec) 
Heartbeat CPU 0 instructions: 970000001 cycles: 709048908 heartbeat IPC: 1.50668 cumulative IPC: 1.36716 (Simulation time: 1 hr 30 min 43 sec) 
Heartbeat CPU 0 instructions: 980000004 cycles: 715734186 heartbeat IPC: 1.49582 cumulative IPC: 1.36836 (Simulation time: 1 hr 31 min 34 sec) 
Heartbeat CPU 0 instructions: 990000002 cycles: 721144989 heartbeat IPC: 1.84815 cumulative IPC: 1.37197 (Simulation time: 1 hr 32 min 18 sec) 
Heartbeat CPU 0 instructions: 1000000001 cycles: 728687376 heartbeat IPC: 1.32584 cumulative IPC: 1.37149 (Simulation time: 1 hr 33 min 8 sec) 
Finished CPU 0 instructions: 1000000001 cycles: 728900077 cumulative IPC: 1.37193 (Simulation time: 1 hr 33 min 12 sec) 

ChampSim completed all CPUs

Region of Interest Statistics

CPU 0 cumulative IPC: 1.37193 instructions: 1000000001 cycles: 728900077
cpu0_DTLB TOTAL     ACCESS:  199835284  HIT:  199358848  MISS:     476436
cpu0_DTLB LOAD      ACCESS:  159908612  HIT:  159516724  MISS:     391888
cpu0_DTLB RFO       ACCESS:   39926672  HIT:   39842124  MISS:      84548
cpu0_DTLB PREFETCH  ACCESS:          0  HIT:          0  MISS:          0
cpu0_DTLB WRITEBACK ACCESS:          0  HIT:          0  MISS:          0
cpu0_DTLB TRANSLATION ACCESS:          0  HIT:          0  MISS:          0
cpu0_DTLB PREFETCH  REQUESTED:          0  ISSUED:          0  USEFUL:          0  USELESS:          0
cpu0_DTLB AVERAGE MISS LATENCY: 28.6781 cycles
cpu0_ITLB TOTAL     ACCESS:   82074619  HIT:   82052246  MISS:      22373
cpu0_ITLB LOAD      ACCESS:   82074619  HIT:   82052246  MISS:      22373
cpu0_ITLB RFO       ACCESS:          0  HIT:          0  MISS:          0
cpu0_ITLB PREFETCH  ACCESS:          0  HIT:          0  MISS:          0
cpu0_ITLB WRITEBACK ACCESS:          0  HIT:          0  MISS:          0
cpu0_ITLB TRANSLATION ACCESS:          0  HIT:          0  MISS:          0
cpu0_ITLB PREFETCH  REQUESTED:          0  ISSUED:          0  USEFUL:          0  USELESS:          0
cpu0_ITLB AVERAGE MISS LATENCY: 14.2597 cycles
cpu0_L1I TOTAL     ACCESS:    7016403  HIT:    6494533  MISS:     521870
cpu0_L1I LOAD      ACCESS:    7016403  HIT:    6494533  MISS:     521870
cpu0_L1I RFO       ACCESS:          0  HIT:          0  MISS:          0
cpu0_L1I PREFETCH  ACCESS:          0  HIT:          0  MISS:          0
cpu0_L1I WRITEBACK ACCESS:          0  HIT:          0  MISS:          0
cpu0_L1I TRANSLATION ACCESS:          0  HIT:          0  MISS:          0
cpu0_L1I PREFETCH  REQUESTED:          0  ISSUED:          0  USEFUL:          0  USELESS:          0
cpu0_L1I AVERAGE MISS LATENCY: 64.4231 cycles
cpu0_STLB TOTAL     ACCESS:     498809  HIT:     451311  MISS:      47498
cpu0_STLB LOAD      ACCESS:     414261  HIT:     384841  MISS:      29420
cpu0_STLB RFO       ACCESS:      84548  HIT:      66470  MISS:      18078
cpu0_STLB PREFETCH  ACCESS:          0  HIT:          0  MISS:          0
cpu0_STLB WRITEBACK ACCESS:          0  HIT:          0  MISS:          0
cpu0_STLB TRANSLATION ACCESS:          0  HIT:          0  MISS:          0
cpu0_STLB PREFETCH  REQUESTED:          0  ISSUED:          0  USEFUL:          0  USELESS:          0
cpu0_STLB AVERAGE MISS LATENCY: 199.24 cycles
cpu0_L1D TOTAL     ACCESS:  285270161  HIT:  266260539  MISS:   19009622
cpu0_L1D LOAD      ACCESS:  129073555  HIT:  123278165  MISS:    5795390
cpu0_L1D RFO       ACCESS:   50115787  HIT:   44235062  MISS:    5880725
cpu0_L1D PREFETCH  ACCESS:  106034785  HIT:   98728723  MISS:    7306062
cpu0_L1D WRITEBACK ACCESS:          0  HIT:          0  MISS:          0
cpu0_L1D TRANSLATION ACCESS:      46034  HIT:      18589  MISS:      27445
cpu0_L1D PREFETCH  REQUESTED:  134725584  ISSUED:  124335185  USEFUL:   10795612  USELESS:     586922
cpu0_L1D AVERAGE MISS LATENCY: 78.4019 cycles
cpu0_L2C TOTAL     ACCESS:   33061880  HIT:   24046723  MISS:    9015157
cpu0_L2C LOAD      ACCESS:    2240693  HIT:    1088660  MISS:    1152033
cpu0_L2C RFO       ACCESS:    5878842  HIT:    3102242  MISS:    2776600
cpu0_L2C PREFETCH  ACCESS:   17360291  HIT:   12290820  MISS:    5069471
cpu0_L2C WRITEBACK ACCESS:    7554609  HIT:    7549160  MISS:       5449
cpu0_L2C TRANSLATION ACCESS:      27445  HIT:      15841  MISS:      11604
cpu0_L2C PREFETCH  REQUESTED:    7296063  ISSUED:    6263348  USEFUL:     198554  USELESS:      71738
cpu0_L2C AVERAGE MISS LATENCY: 249.247 cycles
LLC TOTAL     ACCESS:   12919855  HIT:    9243229  MISS:    3676626
LLC LOAD      ACCESS:    1151958  HIT:     995401  MISS:     156557
LLC RFO       ACCESS:    2776481  HIT:    1565379  MISS:    1211102
LLC PREFETCH  ACCESS:    5080124  HIT:    2846343  MISS:    2233781
LLC WRITEBACK ACCESS:    3899688  HIT:    3825499  MISS:      74189
LLC TRANSLATION ACCESS:      11604  HIT:      10607  MISS:        997
LLC PREFETCH  REQUESTED:          0  ISSUED:          0  USEFUL:          0  USELESS:          0
LLC AVERAGE MISS LATENCY: 546.616 cycles

DRAM Statistics
 CHANNEL 0
 RQ ROW_BUFFER_HIT:     804101  ROW_BUFFER_MISS:    2797311
 DBUS AVG_CONGESTED_CYCLE:     3.9518
 WQ ROW_BUFFER_HIT:      76364  ROW_BUFFER_MISS:    1576024  FULL:        706


CPU 0 Branch Prediction Accuracy: 97.2835% MPKI: 4.12422 Average ROB Occupancy at Mispredict: 65.6375
Branch type MPKI
BRANCH_DIRECT_JUMP: 0.000121
BRANCH_INDIRECT: 0.000752
BRANCH_CONDITIONAL: 4.12278
BRANCH_DIRECT_CALL: 0.000345
BRANCH_INDIRECT_CALL: 0
BRANCH_RETURN: 0.000222

