
*** ChampSim Multicore Out-of-Order Simulator ***

Warmup Instructions: 1000000
Simulation Instructions: 1000000000
Number of CPUs: 1
Off-chip DRAM Size: 4 GiB Channels: 1 Width: 64-bit Data Rate: 3200 MT/s

VirtualMemory physical capacity: 8588881920 num_ppages: 2096895
VirtualMemory page size: 4096 log2_page_size: 12

CPU 0 runs tracer/pin/traces/spec2k6/403.gcc-17B.champsimtrace.xz
Basic BTB sets: 1024 ways: 8 indirect buffer size: 4096 RAS size: 64
cpu0_L1D next line prefetcher
cpu0_L2C IP-based stride prefetcher
WARNING: The extended signature CACHE::prefetch_line(ip, base_addr, pf_addr, fill_this_level, prefetch_metadata) is deprecated.
WARNING: Use CACHE::prefetch_line(pf_addr, fill_this_level, prefetch_metadata) instead.

Warmup complete CPU 0 instructions: 1000003 cycles: 250212 (Simulation time: 0 hr 0 min 2 sec) 

Heartbeat CPU 0 instructions: 10000004 cycles: 22313990 heartbeat IPC: 0.44815 cumulative IPC: 0.407908 (Simulation time: 0 hr 0 min 58 sec) 
Heartbeat CPU 0 instructions: 20000002 cycles: 60351529 heartbeat IPC: 0.262898 cumulative IPC: 0.316133 (Simulation time: 0 hr 2 min 22 sec) 
Heartbeat CPU 0 instructions: 30000004 cycles: 112569837 heartbeat IPC: 0.191504 cumulative IPC: 0.258192 (Simulation time: 0 hr 5 min 47 sec) 
Heartbeat CPU 0 instructions: 40000003 cycles: 194271137 heartbeat IPC: 0.122397 cumulative IPC: 0.201009 (Simulation time: 0 hr 12 min 49 sec) 
Heartbeat CPU 0 instructions: 50000002 cycles: 215981226 heartbeat IPC: 0.460615 cumulative IPC: 0.227135 (Simulation time: 0 hr 13 min 57 sec) 
Heartbeat CPU 0 instructions: 60000000 cycles: 237008434 heartbeat IPC: 0.475574 cumulative IPC: 0.249199 (Simulation time: 0 hr 15 min 7 sec) 
Heartbeat CPU 0 instructions: 70000001 cycles: 256589619 heartbeat IPC: 0.510694 cumulative IPC: 0.269174 (Simulation time: 0 hr 16 min 18 sec) 
Heartbeat CPU 0 instructions: 80000001 cycles: 287230028 heartbeat IPC: 0.326366 cumulative IPC: 0.275281 (Simulation time: 0 hr 17 min 39 sec) 
Heartbeat CPU 0 instructions: 90000000 cycles: 316093051 heartbeat IPC: 0.346464 cumulative IPC: 0.281786 (Simulation time: 0 hr 18 min 52 sec) 
Heartbeat CPU 0 instructions: 100000002 cycles: 358166006 heartbeat IPC: 0.237682 cumulative IPC: 0.276601 (Simulation time: 0 hr 21 min 2 sec) 
Heartbeat CPU 0 instructions: 110000004 cycles: 404344270 heartbeat IPC: 0.216552 cumulative IPC: 0.269739 (Simulation time: 0 hr 24 min 4 sec) 
Heartbeat CPU 0 instructions: 120000001 cycles: 418363045 heartbeat IPC: 0.713329 cumulative IPC: 0.284612 (Simulation time: 0 hr 25 min 6 sec) 
Heartbeat CPU 0 instructions: 130000003 cycles: 431461197 heartbeat IPC: 0.763467 cumulative IPC: 0.299158 (Simulation time: 0 hr 26 min 10 sec) 
Heartbeat CPU 0 instructions: 140000000 cycles: 444932496 heartbeat IPC: 0.742319 cumulative IPC: 0.312583 (Simulation time: 0 hr 27 min 11 sec) 
Heartbeat CPU 0 instructions: 150000003 cycles: 458060573 heartbeat IPC: 0.761726 cumulative IPC: 0.325462 (Simulation time: 0 hr 28 min 12 sec) 
Heartbeat CPU 0 instructions: 160000001 cycles: 472208302 heartbeat IPC: 0.706827 cumulative IPC: 0.336894 (Simulation time: 0 hr 29 min 13 sec) 
Heartbeat CPU 0 instructions: 170000003 cycles: 485183154 heartbeat IPC: 0.770722 cumulative IPC: 0.348502 (Simulation time: 0 hr 30 min 21 sec) 
Heartbeat CPU 0 instructions: 180000003 cycles: 498336914 heartbeat IPC: 0.760239 cumulative IPC: 0.359375 (Simulation time: 0 hr 31 min 20 sec) 
Heartbeat CPU 0 instructions: 190000002 cycles: 511540799 heartbeat IPC: 0.757353 cumulative IPC: 0.369653 (Simulation time: 0 hr 32 min 27 sec) 
Heartbeat CPU 0 instructions: 200000000 cycles: 525713170 heartbeat IPC: 0.705598 cumulative IPC: 0.378714 (Simulation time: 0 hr 33 min 33 sec) 
Heartbeat CPU 0 instructions: 210000000 cycles: 538779410 heartbeat IPC: 0.765331 cumulative IPC: 0.388094 (Simulation time: 0 hr 34 min 32 sec) 
Heartbeat CPU 0 instructions: 220000004 cycles: 552036861 heartbeat IPC: 0.754293 cumulative IPC: 0.396893 (Simulation time: 0 hr 35 min 31 sec) 
Heartbeat CPU 0 instructions: 230000001 cycles: 565984298 heartbeat IPC: 0.716977 cumulative IPC: 0.404784 (Simulation time: 0 hr 36 min 29 sec) 
Heartbeat CPU 0 instructions: 240000002 cycles: 579533720 heartbeat IPC: 0.738039 cumulative IPC: 0.412579 (Simulation time: 0 hr 37 min 27 sec) 
Heartbeat CPU 0 instructions: 250000000 cycles: 592678978 heartbeat IPC: 0.76073 cumulative IPC: 0.420304 (Simulation time: 0 hr 38 min 24 sec) 
Heartbeat CPU 0 instructions: 260000001 cycles: 605589295 heartbeat IPC: 0.774574 cumulative IPC: 0.427859 (Simulation time: 0 hr 39 min 25 sec) 
Heartbeat CPU 0 instructions: 270000002 cycles: 618490446 heartbeat IPC: 0.775125 cumulative IPC: 0.435106 (Simulation time: 0 hr 40 min 25 sec) 
Heartbeat CPU 0 instructions: 280000002 cycles: 631534361 heartbeat IPC: 0.766641 cumulative IPC: 0.441956 (Simulation time: 0 hr 41 min 26 sec) 
Heartbeat CPU 0 instructions: 290000000 cycles: 644664294 heartbeat IPC: 0.761618 cumulative IPC: 0.448469 (Simulation time: 0 hr 42 min 28 sec) 
Heartbeat CPU 0 instructions: 300000004 cycles: 658023621 heartbeat IPC: 0.748541 cumulative IPC: 0.454564 (Simulation time: 0 hr 43 min 29 sec) 
Heartbeat CPU 0 instructions: 310000000 cycles: 672070457 heartbeat IPC: 0.711904 cumulative IPC: 0.459944 (Simulation time: 0 hr 44 min 34 sec) 
Heartbeat CPU 0 instructions: 320000004 cycles: 685512900 heartbeat IPC: 0.743913 cumulative IPC: 0.465515 (Simulation time: 0 hr 45 min 36 sec) 
Heartbeat CPU 0 instructions: 330000003 cycles: 698861151 heartbeat IPC: 0.749162 cumulative IPC: 0.470935 (Simulation time: 0 hr 46 min 35 sec) 
Heartbeat CPU 0 instructions: 340000003 cycles: 712329104 heartbeat IPC: 0.742503 cumulative IPC: 0.476071 (Simulation time: 0 hr 47 min 35 sec) 
Heartbeat CPU 0 instructions: 350000001 cycles: 725342119 heartbeat IPC: 0.768461 cumulative IPC: 0.481318 (Simulation time: 0 hr 48 min 38 sec) 
Heartbeat CPU 0 instructions: 360000001 cycles: 737968811 heartbeat IPC: 0.791973 cumulative IPC: 0.486635 (Simulation time: 0 hr 49 min 41 sec) 
Heartbeat CPU 0 instructions: 370000003 cycles: 751135905 heartbeat IPC: 0.759469 cumulative IPC: 0.49142 (Simulation time: 0 hr 50 min 44 sec) 
Heartbeat CPU 0 instructions: 380000002 cycles: 763693364 heartbeat IPC: 0.796339 cumulative IPC: 0.496435 (Simulation time: 0 hr 51 min 42 sec) 
Heartbeat CPU 0 instructions: 390000000 cycles: 776624024 heartbeat IPC: 0.773356 cumulative IPC: 0.501047 (Simulation time: 0 hr 52 min 48 sec) 
Heartbeat CPU 0 instructions: 400000001 cycles: 789906662 heartbeat IPC: 0.752863 cumulative IPC: 0.505283 (Simulation time: 0 hr 53 min 51 sec) 
Heartbeat CPU 0 instructions: 410000004 cycles: 802549656 heartbeat IPC: 0.790952 cumulative IPC: 0.509785 (Simulation time: 0 hr 54 min 48 sec) 
Heartbeat CPU 0 instructions: 420000002 cycles: 815571525 heartbeat IPC: 0.767939 cumulative IPC: 0.513908 (Simulation time: 0 hr 56 min 0 sec) 
Heartbeat CPU 0 instructions: 430000004 cycles: 828484866 heartbeat IPC: 0.774393 cumulative IPC: 0.517969 (Simulation time: 0 hr 57 min 6 sec) 
Heartbeat CPU 0 instructions: 440000000 cycles: 841901295 heartbeat IPC: 0.745355 cumulative IPC: 0.521594 (Simulation time: 0 hr 58 min 13 sec) 
Heartbeat CPU 0 instructions: 450000003 cycles: 855504429 heartbeat IPC: 0.735125 cumulative IPC: 0.52499 (Simulation time: 0 hr 59 min 17 sec) 
Heartbeat CPU 0 instructions: 460000002 cycles: 868996841 heartbeat IPC: 0.741157 cumulative IPC: 0.528347 (Simulation time: 1 hr 0 min 19 sec) 
Heartbeat CPU 0 instructions: 470000004 cycles: 882118834 heartbeat IPC: 0.76208 cumulative IPC: 0.531825 (Simulation time: 1 hr 1 min 21 sec) 
Heartbeat CPU 0 instructions: 480000002 cycles: 895070166 heartbeat IPC: 0.772121 cumulative IPC: 0.535303 (Simulation time: 1 hr 2 min 18 sec) 
Heartbeat CPU 0 instructions: 490000003 cycles: 907729313 heartbeat IPC: 0.789943 cumulative IPC: 0.538855 (Simulation time: 1 hr 3 min 18 sec) 
Heartbeat CPU 0 instructions: 500000001 cycles: 920668343 heartbeat IPC: 0.772855 cumulative IPC: 0.542145 (Simulation time: 1 hr 4 min 18 sec) 
Heartbeat CPU 0 instructions: 510000001 cycles: 933762632 heartbeat IPC: 0.763692 cumulative IPC: 0.545253 (Simulation time: 1 hr 5 min 18 sec) 
Heartbeat CPU 0 instructions: 520000000 cycles: 947532176 heartbeat IPC: 0.72624 cumulative IPC: 0.547883 (Simulation time: 1 hr 6 min 23 sec) 
Heartbeat CPU 0 instructions: 530000000 cycles: 961100596 heartbeat IPC: 0.737005 cumulative IPC: 0.550554 (Simulation time: 1 hr 7 min 24 sec) 
Heartbeat CPU 0 instructions: 540000001 cycles: 974344966 heartbeat IPC: 0.755038 cumulative IPC: 0.553334 (Simulation time: 1 hr 8 min 24 sec) 
Heartbeat CPU 0 instructions: 550000000 cycles: 987339915 heartbeat IPC: 0.76953 cumulative IPC: 0.55618 (Simulation time: 1 hr 9 min 23 sec) 
Heartbeat CPU 0 instructions: 560000003 cycles: 1000770093 heartbeat IPC: 0.744592 cumulative IPC: 0.55871 (Simulation time: 1 hr 10 min 27 sec) 
Heartbeat CPU 0 instructions: 570000002 cycles: 1014033463 heartbeat IPC: 0.753956 cumulative IPC: 0.561264 (Simulation time: 1 hr 11 min 29 sec) 
Heartbeat CPU 0 instructions: 580000004 cycles: 1026969720 heartbeat IPC: 0.773021 cumulative IPC: 0.563932 (Simulation time: 1 hr 12 min 30 sec) 
Heartbeat CPU 0 instructions: 590000002 cycles: 1040283104 heartbeat IPC: 0.751124 cumulative IPC: 0.566328 (Simulation time: 1 hr 13 min 34 sec) 
Heartbeat CPU 0 instructions: 600000002 cycles: 1053186780 heartbeat IPC: 0.774973 cumulative IPC: 0.568885 (Simulation time: 1 hr 14 min 36 sec) 
Heartbeat CPU 0 instructions: 610000002 cycles: 1065954964 heartbeat IPC: 0.783197 cumulative IPC: 0.571453 (Simulation time: 1 hr 15 min 35 sec) 
Heartbeat CPU 0 instructions: 620000001 cycles: 1079414541 heartbeat IPC: 0.742965 cumulative IPC: 0.573592 (Simulation time: 1 hr 16 min 38 sec) 
Heartbeat CPU 0 instructions: 630000002 cycles: 1092320010 heartbeat IPC: 0.774865 cumulative IPC: 0.575971 (Simulation time: 1 hr 17 min 38 sec) 
Heartbeat CPU 0 instructions: 640000002 cycles: 1105913718 heartbeat IPC: 0.735634 cumulative IPC: 0.577933 (Simulation time: 1 hr 18 min 42 sec) 
Heartbeat CPU 0 instructions: 650000001 cycles: 1118953222 heartbeat IPC: 0.7669 cumulative IPC: 0.580136 (Simulation time: 1 hr 19 min 41 sec) 
Heartbeat CPU 0 instructions: 660000002 cycles: 1132256830 heartbeat IPC: 0.751676 cumulative IPC: 0.582152 (Simulation time: 1 hr 20 min 40 sec) 
Heartbeat CPU 0 instructions: 670000000 cycles: 1144941360 heartbeat IPC: 0.788362 cumulative IPC: 0.584437 (Simulation time: 1 hr 21 min 36 sec) 
Heartbeat CPU 0 instructions: 680000002 cycles: 1158747613 heartbeat IPC: 0.72431 cumulative IPC: 0.586104 (Simulation time: 1 hr 22 min 39 sec) 
Heartbeat CPU 0 instructions: 690000001 cycles: 1171868982 heartbeat IPC: 0.762116 cumulative IPC: 0.588075 (Simulation time: 1 hr 23 min 38 sec) 
Heartbeat CPU 0 instructions: 700000000 cycles: 1184822980 heartbeat IPC: 0.771962 cumulative IPC: 0.590086 (Simulation time: 1 hr 24 min 34 sec) 
Heartbeat CPU 0 instructions: 710000000 cycles: 1198031963 heartbeat IPC: 0.757061 cumulative IPC: 0.591928 (Simulation time: 1 hr 25 min 35 sec) 
Heartbeat CPU 0 instructions: 720000001 cycles: 1211140945 heartbeat IPC: 0.762836 cumulative IPC: 0.593778 (Simulation time: 1 hr 26 min 33 sec) 
Heartbeat CPU 0 instructions: 730000002 cycles: 1223953711 heartbeat IPC: 0.780472 cumulative IPC: 0.595733 (Simulation time: 1 hr 27 min 28 sec) 
Heartbeat CPU 0 instructions: 740000002 cycles: 1237115653 heartbeat IPC: 0.759766 cumulative IPC: 0.597478 (Simulation time: 1 hr 28 min 25 sec) 
Heartbeat CPU 0 instructions: 750000001 cycles: 1249988506 heartbeat IPC: 0.776828 cumulative IPC: 0.599325 (Simulation time: 1 hr 29 min 17 sec) 
Heartbeat CPU 0 instructions: 760000000 cycles: 1263832065 heartbeat IPC: 0.722358 cumulative IPC: 0.600673 (Simulation time: 1 hr 30 min 14 sec) 
Heartbeat CPU 0 instructions: 770000000 cycles: 1276914755 heartbeat IPC: 0.764369 cumulative IPC: 0.602351 (Simulation time: 1 hr 31 min 9 sec) 
Heartbeat CPU 0 instructions: 780000004 cycles: 1290136954 heartbeat IPC: 0.756304 cumulative IPC: 0.603929 (Simulation time: 1 hr 32 min 2 sec) 
Heartbeat CPU 0 instructions: 790000000 cycles: 1303169417 heartbeat IPC: 0.767314 cumulative IPC: 0.605563 (Simulation time: 1 hr 32 min 56 sec) 
Heartbeat CPU 0 instructions: 800000002 cycles: 1316254329 heartbeat IPC: 0.764239 cumulative IPC: 0.607141 (Simulation time: 1 hr 33 min 49 sec) 
Heartbeat CPU 0 instructions: 810000003 cycles: 1328828081 heartbeat IPC: 0.795308 cumulative IPC: 0.608922 (Simulation time: 1 hr 34 min 40 sec) 
Heartbeat CPU 0 instructions: 820000000 cycles: 1341875142 heartbeat IPC: 0.766456 cumulative IPC: 0.610454 (Simulation time: 1 hr 35 min 31 sec) 
Heartbeat CPU 0 instructions: 830000000 cycles: 1354559199 heartbeat IPC: 0.788391 cumulative IPC: 0.61212 (Simulation time: 1 hr 36 min 22 sec) 
Heartbeat CPU 0 instructions: 840000001 cycles: 1367888749 heartbeat IPC: 0.750213 cumulative IPC: 0.613466 (Simulation time: 1 hr 37 min 15 sec) 
Heartbeat CPU 0 instructions: 850000002 cycles: 1380918283 heartbeat IPC: 0.767487 cumulative IPC: 0.61492 (Simulation time: 1 hr 38 min 8 sec) 
Heartbeat CPU 0 instructions: 860000002 cycles: 1394187216 heartbeat IPC: 0.75364 cumulative IPC: 0.61624 (Simulation time: 1 hr 39 min 2 sec) 
Heartbeat CPU 0 instructions: 870000002 cycles: 1406978210 heartbeat IPC: 0.7818 cumulative IPC: 0.617746 (Simulation time: 1 hr 39 min 54 sec) 
Heartbeat CPU 0 instructions: 880000004 cycles: 1420208639 heartbeat IPC: 0.755834 cumulative IPC: 0.619032 (Simulation time: 1 hr 40 min 44 sec) 
Heartbeat CPU 0 instructions: 890000001 cycles: 1433070680 heartbeat IPC: 0.777481 cumulative IPC: 0.620455 (Simulation time: 1 hr 41 min 30 sec) 
Heartbeat CPU 0 instructions: 900000000 cycles: 1446279823 heartbeat IPC: 0.757051 cumulative IPC: 0.621702 (Simulation time: 1 hr 42 min 18 sec) 
Heartbeat CPU 0 instructions: 910000000 cycles: 1460305486 heartbeat IPC: 0.712979 cumulative IPC: 0.622579 (Simulation time: 1 hr 43 min 8 sec) 
Heartbeat CPU 0 instructions: 920000002 cycles: 1473859562 heartbeat IPC: 0.737786 cumulative IPC: 0.623639 (Simulation time: 1 hr 43 min 58 sec) 
Heartbeat CPU 0 instructions: 930000004 cycles: 1487043832 heartbeat IPC: 0.75848 cumulative IPC: 0.624835 (Simulation time: 1 hr 44 min 45 sec) 
Heartbeat CPU 0 instructions: 940000003 cycles: 1500063819 heartbeat IPC: 0.76805 cumulative IPC: 0.626078 (Simulation time: 1 hr 45 min 33 sec) 
Heartbeat CPU 0 instructions: 950000001 cycles: 1513023770 heartbeat IPC: 0.771608 cumulative IPC: 0.627325 (Simulation time: 1 hr 46 min 19 sec) 
Heartbeat CPU 0 instructions: 960000001 cycles: 1526720551 heartbeat IPC: 0.730099 cumulative IPC: 0.628247 (Simulation time: 1 hr 47 min 8 sec) 
Heartbeat CPU 0 instructions: 970000001 cycles: 1540400192 heartbeat IPC: 0.731013 cumulative IPC: 0.62916 (Simulation time: 1 hr 47 min 56 sec) 
Heartbeat CPU 0 instructions: 980000001 cycles: 1553331667 heartbeat IPC: 0.773307 cumulative IPC: 0.63036 (Simulation time: 1 hr 48 min 42 sec) 
Heartbeat CPU 0 instructions: 990000000 cycles: 1566865940 heartbeat IPC: 0.738865 cumulative IPC: 0.631297 (Simulation time: 1 hr 49 min 28 sec) 
Heartbeat CPU 0 instructions: 1000000001 cycles: 1579681494 heartbeat IPC: 0.780302 cumulative IPC: 0.632506 (Simulation time: 1 hr 50 min 13 sec) 
Finished CPU 0 instructions: 1000000001 cycles: 1580738005 cumulative IPC: 0.632616 (Simulation time: 1 hr 50 min 17 sec) 

ChampSim completed all CPUs

Region of Interest Statistics

CPU 0 cumulative IPC: 0.632616 instructions: 1000000001 cycles: 1580738005
cpu0_DTLB TOTAL     ACCESS:  226851105  HIT:  221558349  MISS:    5292756
cpu0_DTLB LOAD      ACCESS:  166480228  HIT:  161756701  MISS:    4723527
cpu0_DTLB RFO       ACCESS:   60370877  HIT:   59801648  MISS:     569229
cpu0_DTLB PREFETCH  ACCESS:          0  HIT:          0  MISS:          0
cpu0_DTLB WRITEBACK ACCESS:          0  HIT:          0  MISS:          0
cpu0_DTLB TRANSLATION ACCESS:          0  HIT:          0  MISS:          0
cpu0_DTLB PREFETCH  REQUESTED:          0  ISSUED:          0  USEFUL:          0  USELESS:          0
cpu0_DTLB AVERAGE MISS LATENCY: 14.3048 cycles
cpu0_ITLB TOTAL     ACCESS:   82580078  HIT:   82578116  MISS:       1962
cpu0_ITLB LOAD      ACCESS:   82580078  HIT:   82578116  MISS:       1962
cpu0_ITLB RFO       ACCESS:          0  HIT:          0  MISS:          0
cpu0_ITLB PREFETCH  ACCESS:          0  HIT:          0  MISS:          0
cpu0_ITLB WRITEBACK ACCESS:          0  HIT:          0  MISS:          0
cpu0_ITLB TRANSLATION ACCESS:          0  HIT:          0  MISS:          0
cpu0_ITLB PREFETCH  REQUESTED:          0  ISSUED:          0  USEFUL:          0  USELESS:          0
cpu0_ITLB AVERAGE MISS LATENCY: 13.8364 cycles
cpu0_L1I TOTAL     ACCESS:   98884419  HIT:   98881517  MISS:       2902
cpu0_L1I LOAD      ACCESS:   98884419  HIT:   98881517  MISS:       2902
cpu0_L1I RFO       ACCESS:          0  HIT:          0  MISS:          0
cpu0_L1I PREFETCH  ACCESS:          0  HIT:          0  MISS:          0
cpu0_L1I WRITEBACK ACCESS:          0  HIT:          0  MISS:          0
cpu0_L1I TRANSLATION ACCESS:          0  HIT:          0  MISS:          0
cpu0_L1I PREFETCH  REQUESTED:          0  ISSUED:          0  USEFUL:          0  USELESS:          0
cpu0_L1I AVERAGE MISS LATENCY: 171.797 cycles
cpu0_STLB TOTAL     ACCESS:    5294718  HIT:    2965686  MISS:    2329032
cpu0_STLB LOAD      ACCESS:    4725489  HIT:    2936677  MISS:    1788812
cpu0_STLB RFO       ACCESS:     569229  HIT:      29009  MISS:     540220
cpu0_STLB PREFETCH  ACCESS:          0  HIT:          0  MISS:          0
cpu0_STLB WRITEBACK ACCESS:          0  HIT:          0  MISS:          0
cpu0_STLB TRANSLATION ACCESS:          0  HIT:          0  MISS:          0
cpu0_STLB PREFETCH  REQUESTED:          0  ISSUED:          0  USEFUL:          0  USELESS:          0
cpu0_STLB AVERAGE MISS LATENCY: 12.0025 cycles
cpu0_L1D TOTAL     ACCESS:  457425887  HIT:  439064626  MISS:   18361261
cpu0_L1D LOAD      ACCESS:  159703000  HIT:  151376884  MISS:    8326116
cpu0_L1D RFO       ACCESS:  137384840  HIT:  136073728  MISS:    1311112
cpu0_L1D PREFETCH  ACCESS:  158021845  HIT:  149333340  MISS:    8688505
cpu0_L1D WRITEBACK ACCESS:          0  HIT:          0  MISS:          0
cpu0_L1D TRANSLATION ACCESS:    2316202  HIT:    2280674  MISS:      35528
cpu0_L1D PREFETCH  REQUESTED:  160280193  ISSUED:  159639041  USEFUL:    4467657  USELESS:    4286871
cpu0_L1D AVERAGE MISS LATENCY: 150.047 cycles
cpu0_L2C TOTAL     ACCESS:   21132854  HIT:    4372749  MISS:   16760105
cpu0_L2C LOAD      ACCESS:    8274236  HIT:     947754  MISS:    7326482
cpu0_L2C RFO       ACCESS:    1299629  HIT:      13480  MISS:    1286149
cpu0_L2C PREFETCH  ACCESS:    9219699  HIT:    1086950  MISS:    8132749
cpu0_L2C WRITEBACK ACCESS:    2303762  HIT:    2297273  MISS:       6489
cpu0_L2C TRANSLATION ACCESS:      35528  HIT:      27292  MISS:       8236
cpu0_L2C PREFETCH  REQUESTED:     481300  ISSUED:     472469  USEFUL:      98362  USELESS:     191623
cpu0_L2C AVERAGE MISS LATENCY: 155.361 cycles
LLC TOTAL     ACCESS:   19024807  HIT:   14329855  MISS:    4694952
LLC LOAD      ACCESS:    7326471  HIT:    5869574  MISS:    1456897
LLC RFO       ACCESS:    1286148  HIT:       3366  MISS:    1282782
LLC PREFETCH  ACCESS:    8135696  HIT:    6397392  MISS:    1738304
LLC WRITEBACK ACCESS:    2268256  HIT:    2051666  MISS:     216590
LLC TRANSLATION ACCESS:       8236  HIT:       7857  MISS:        379
LLC PREFETCH  REQUESTED:          0  ISSUED:          0  USEFUL:          0  USELESS:          0
LLC AVERAGE MISS LATENCY: 458.638 cycles

DRAM Statistics
 CHANNEL 0
 RQ ROW_BUFFER_HIT:     416715  ROW_BUFFER_MISS:    4061580
 DBUS AVG_CONGESTED_CYCLE:    3.83813
 WQ ROW_BUFFER_HIT:     185960  ROW_BUFFER_MISS:    1611212  FULL:          0


CPU 0 Branch Prediction Accuracy: 92.9219% MPKI: 16.69 Average ROB Occupancy at Mispredict: 28.3779
Branch type MPKI
BRANCH_DIRECT_JUMP: 0.000223
BRANCH_INDIRECT: 0.103654
BRANCH_CONDITIONAL: 16.5852
BRANCH_DIRECT_CALL: 0.000322
BRANCH_INDIRECT_CALL: 0.000204
BRANCH_RETURN: 0.000382

