
*** ChampSim Multicore Out-of-Order Simulator ***

Warmup Instructions: 1000000
Simulation Instructions: 1000000000
Number of CPUs: 1
Off-chip DRAM Size: 4 GiB Channels: 1 Width: 64-bit Data Rate: 3200 MT/s

VirtualMemory physical capacity: 8588881920 num_ppages: 2096895
VirtualMemory page size: 4096 log2_page_size: 12

CPU 0 runs tracer/pin/traces/spec2k6/470.lbm-1274B.champsimtrace.xz
Basic BTB sets: 1024 ways: 8 indirect buffer size: 4096 RAS size: 64
cpu0_L1D next line prefetcher
cpu0_L2C IP-based stride prefetcher
WARNING: The extended signature CACHE::prefetch_line(ip, base_addr, pf_addr, fill_this_level, prefetch_metadata) is deprecated.
WARNING: Use CACHE::prefetch_line(pf_addr, fill_this_level, prefetch_metadata) instead.

Warmup complete CPU 0 instructions: 1000002 cycles: 250095 (Simulation time: 0 hr 0 min 3 sec) 

Heartbeat CPU 0 instructions: 10000002 cycles: 50495225 heartbeat IPC: 0.198039 cumulative IPC: 0.179122 (Simulation time: 0 hr 4 min 32 sec) 
Heartbeat CPU 0 instructions: 20000004 cycles: 106747244 heartbeat IPC: 0.177771 cumulative IPC: 0.178409 (Simulation time: 0 hr 9 min 43 sec) 
Heartbeat CPU 0 instructions: 30000003 cycles: 163393717 heartbeat IPC: 0.176533 cumulative IPC: 0.177757 (Simulation time: 0 hr 15 min 13 sec) 
Heartbeat CPU 0 instructions: 40000000 cycles: 219974837 heartbeat IPC: 0.176737 cumulative IPC: 0.177495 (Simulation time: 0 hr 20 min 43 sec) 
Heartbeat CPU 0 instructions: 50000002 cycles: 276601714 heartbeat IPC: 0.176595 cumulative IPC: 0.17731 (Simulation time: 0 hr 26 min 10 sec) 
Heartbeat CPU 0 instructions: 60000001 cycles: 333235189 heartbeat IPC: 0.176574 cumulative IPC: 0.177185 (Simulation time: 0 hr 31 min 35 sec) 
Heartbeat CPU 0 instructions: 70000003 cycles: 389763631 heartbeat IPC: 0.176902 cumulative IPC: 0.177144 (Simulation time: 0 hr 36 min 53 sec) 
Heartbeat CPU 0 instructions: 80000003 cycles: 446038732 heartbeat IPC: 0.177698 cumulative IPC: 0.177214 (Simulation time: 0 hr 41 min 59 sec) 
Heartbeat CPU 0 instructions: 90000002 cycles: 502643384 heartbeat IPC: 0.176664 cumulative IPC: 0.177152 (Simulation time: 0 hr 47 min 14 sec) 
Heartbeat CPU 0 instructions: 100000004 cycles: 559204709 heartbeat IPC: 0.176799 cumulative IPC: 0.177116 (Simulation time: 0 hr 52 min 26 sec) 
Heartbeat CPU 0 instructions: 110000001 cycles: 615892456 heartbeat IPC: 0.176405 cumulative IPC: 0.177051 (Simulation time: 0 hr 57 min 27 sec) 
Heartbeat CPU 0 instructions: 120000003 cycles: 672621296 heartbeat IPC: 0.176277 cumulative IPC: 0.176986 (Simulation time: 1 hr 2 min 31 sec) 
Heartbeat CPU 0 instructions: 130000004 cycles: 729283145 heartbeat IPC: 0.176486 cumulative IPC: 0.176947 (Simulation time: 1 hr 7 min 38 sec) 
Heartbeat CPU 0 instructions: 140000004 cycles: 785834867 heartbeat IPC: 0.176829 cumulative IPC: 0.176938 (Simulation time: 1 hr 12 min 45 sec) 
Heartbeat CPU 0 instructions: 150000004 cycles: 842138546 heartbeat IPC: 0.177608 cumulative IPC: 0.176983 (Simulation time: 1 hr 18 min 7 sec) 
Heartbeat CPU 0 instructions: 160000003 cycles: 898887626 heartbeat IPC: 0.176214 cumulative IPC: 0.176935 (Simulation time: 1 hr 23 min 39 sec) 
Heartbeat CPU 0 instructions: 170000000 cycles: 955352030 heartbeat IPC: 0.177103 cumulative IPC: 0.176944 (Simulation time: 1 hr 28 min 44 sec) 
Heartbeat CPU 0 instructions: 180000002 cycles: 1011960983 heartbeat IPC: 0.176651 cumulative IPC: 0.176928 (Simulation time: 1 hr 33 min 59 sec) 
Heartbeat CPU 0 instructions: 190000003 cycles: 1068505324 heartbeat IPC: 0.176852 cumulative IPC: 0.176924 (Simulation time: 1 hr 39 min 37 sec) 
Heartbeat CPU 0 instructions: 200000000 cycles: 1125149362 heartbeat IPC: 0.176541 cumulative IPC: 0.176905 (Simulation time: 1 hr 45 min 15 sec) 
Heartbeat CPU 0 instructions: 210000000 cycles: 1181403989 heartbeat IPC: 0.177763 cumulative IPC: 0.176946 (Simulation time: 1 hr 50 min 49 sec) 
Heartbeat CPU 0 instructions: 220000000 cycles: 1237992968 heartbeat IPC: 0.176713 cumulative IPC: 0.176935 (Simulation time: 1 hr 56 min 28 sec) 
Heartbeat CPU 0 instructions: 230000004 cycles: 1294565301 heartbeat IPC: 0.176765 cumulative IPC: 0.176928 (Simulation time: 2 hr 1 min 51 sec) 
Heartbeat CPU 0 instructions: 240000001 cycles: 1351241460 heartbeat IPC: 0.176441 cumulative IPC: 0.176907 (Simulation time: 2 hr 7 min 32 sec) 
Heartbeat CPU 0 instructions: 250000003 cycles: 1407868570 heartbeat IPC: 0.176594 cumulative IPC: 0.176895 (Simulation time: 2 hr 13 min 12 sec) 
Heartbeat CPU 0 instructions: 260000004 cycles: 1464576845 heartbeat IPC: 0.176341 cumulative IPC: 0.176873 (Simulation time: 2 hr 18 min 53 sec) 
Heartbeat CPU 0 instructions: 270000000 cycles: 1571833408 heartbeat IPC: 0.0932344 cumulative IPC: 0.171165 (Simulation time: 2 hr 29 min 25 sec) 
Heartbeat CPU 0 instructions: 280000004 cycles: 1628525792 heartbeat IPC: 0.176391 cumulative IPC: 0.171347 (Simulation time: 2 hr 35 min 6 sec) 
Heartbeat CPU 0 instructions: 290000001 cycles: 1685085813 heartbeat IPC: 0.176803 cumulative IPC: 0.17153 (Simulation time: 2 hr 40 min 46 sec) 
Heartbeat CPU 0 instructions: 300000004 cycles: 1741514435 heartbeat IPC: 0.177215 cumulative IPC: 0.171714 (Simulation time: 2 hr 46 min 23 sec) 
Heartbeat CPU 0 instructions: 310000000 cycles: 1799847669 heartbeat IPC: 0.171429 cumulative IPC: 0.171705 (Simulation time: 2 hr 51 min 55 sec) 
Heartbeat CPU 0 instructions: 320000004 cycles: 1860088326 heartbeat IPC: 0.166001 cumulative IPC: 0.17152 (Simulation time: 2 hr 57 min 45 sec) 
Heartbeat CPU 0 instructions: 330000003 cycles: 1921629384 heartbeat IPC: 0.162493 cumulative IPC: 0.171231 (Simulation time: 3 hr 3 min 32 sec) 
Heartbeat CPU 0 instructions: 340000004 cycles: 1984738480 heartbeat IPC: 0.158456 cumulative IPC: 0.170825 (Simulation time: 3 hr 9 min 17 sec) 
Heartbeat CPU 0 instructions: 350000000 cycles: 2049455920 heartbeat IPC: 0.154518 cumulative IPC: 0.17031 (Simulation time: 3 hr 14 min 35 sec) 
Heartbeat CPU 0 instructions: 360000004 cycles: 2114963146 heartbeat IPC: 0.152655 cumulative IPC: 0.169763 (Simulation time: 3 hr 19 min 48 sec) 
Heartbeat CPU 0 instructions: 370000002 cycles: 2179353018 heartbeat IPC: 0.155304 cumulative IPC: 0.169336 (Simulation time: 3 hr 25 min 2 sec) 
Heartbeat CPU 0 instructions: 380000001 cycles: 2243914910 heartbeat IPC: 0.15489 cumulative IPC: 0.16892 (Simulation time: 3 hr 30 min 10 sec) 
Heartbeat CPU 0 instructions: 390000004 cycles: 2308518834 heartbeat IPC: 0.154789 cumulative IPC: 0.168525 (Simulation time: 3 hr 34 min 59 sec) 
Heartbeat CPU 0 instructions: 400000002 cycles: 2372472812 heartbeat IPC: 0.156362 cumulative IPC: 0.168197 (Simulation time: 3 hr 39 min 33 sec) 
Heartbeat CPU 0 instructions: 410000000 cycles: 2434045970 heartbeat IPC: 0.162408 cumulative IPC: 0.16805 (Simulation time: 3 hr 43 min 48 sec) 
Heartbeat CPU 0 instructions: 420000002 cycles: 2494189667 heartbeat IPC: 0.166268 cumulative IPC: 0.168007 (Simulation time: 3 hr 48 min 23 sec) 
Heartbeat CPU 0 instructions: 430000002 cycles: 2552502046 heartbeat IPC: 0.17149 cumulative IPC: 0.168087 (Simulation time: 3 hr 52 min 56 sec) 
Heartbeat CPU 0 instructions: 440000000 cycles: 2609206912 heartbeat IPC: 0.176352 cumulative IPC: 0.168266 (Simulation time: 3 hr 57 min 16 sec) 
Heartbeat CPU 0 instructions: 450000003 cycles: 2665819644 heartbeat IPC: 0.176639 cumulative IPC: 0.168444 (Simulation time: 4 hr 1 min 29 sec) 
Heartbeat CPU 0 instructions: 460000004 cycles: 2722272765 heartbeat IPC: 0.177138 cumulative IPC: 0.168625 (Simulation time: 4 hr 5 min 35 sec) 
Heartbeat CPU 0 instructions: 470000003 cycles: 2778505882 heartbeat IPC: 0.177831 cumulative IPC: 0.168811 (Simulation time: 4 hr 9 min 26 sec) 
Heartbeat CPU 0 instructions: 480000003 cycles: 2835077175 heartbeat IPC: 0.176768 cumulative IPC: 0.16897 (Simulation time: 4 hr 13 min 19 sec) 
Heartbeat CPU 0 instructions: 490000002 cycles: 2891710828 heartbeat IPC: 0.176573 cumulative IPC: 0.169119 (Simulation time: 4 hr 17 min 22 sec) 
Heartbeat CPU 0 instructions: 500000004 cycles: 2948294869 heartbeat IPC: 0.176728 cumulative IPC: 0.169265 (Simulation time: 4 hr 20 min 46 sec) 
Heartbeat CPU 0 instructions: 510000001 cycles: 3004758487 heartbeat IPC: 0.177105 cumulative IPC: 0.169412 (Simulation time: 4 hr 24 min 7 sec) 
Heartbeat CPU 0 instructions: 520000003 cycles: 3061367551 heartbeat IPC: 0.17665 cumulative IPC: 0.169546 (Simulation time: 4 hr 27 min 26 sec) 
Heartbeat CPU 0 instructions: 530000004 cycles: 3117545737 heartbeat IPC: 0.178005 cumulative IPC: 0.169698 (Simulation time: 4 hr 30 min 41 sec) 
Heartbeat CPU 0 instructions: 540000004 cycles: 3174202266 heartbeat IPC: 0.176502 cumulative IPC: 0.16982 (Simulation time: 4 hr 33 min 58 sec) 
Heartbeat CPU 0 instructions: 550000001 cycles: 3230722275 heartbeat IPC: 0.176928 cumulative IPC: 0.169944 (Simulation time: 4 hr 37 min 9 sec) 
Heartbeat CPU 0 instructions: 560000003 cycles: 3287364553 heartbeat IPC: 0.176547 cumulative IPC: 0.170058 (Simulation time: 4 hr 40 min 19 sec) 
Heartbeat CPU 0 instructions: 570000000 cycles: 3343850077 heartbeat IPC: 0.177036 cumulative IPC: 0.170176 (Simulation time: 4 hr 43 min 29 sec) 
Heartbeat CPU 0 instructions: 580000002 cycles: 3400489614 heartbeat IPC: 0.176555 cumulative IPC: 0.170282 (Simulation time: 4 hr 46 min 42 sec) 
Heartbeat CPU 0 instructions: 590000003 cycles: 3457075059 heartbeat IPC: 0.176724 cumulative IPC: 0.170388 (Simulation time: 4 hr 49 min 51 sec) 
Heartbeat CPU 0 instructions: 600000000 cycles: 3513443483 heartbeat IPC: 0.177404 cumulative IPC: 0.1705 (Simulation time: 4 hr 53 min 0 sec) 
Heartbeat CPU 0 instructions: 610000000 cycles: 3570076514 heartbeat IPC: 0.176575 cumulative IPC: 0.170597 (Simulation time: 4 hr 56 min 14 sec) 
Heartbeat CPU 0 instructions: 620000002 cycles: 3626639126 heartbeat IPC: 0.176795 cumulative IPC: 0.170693 (Simulation time: 4 hr 59 min 44 sec) 
Heartbeat CPU 0 instructions: 630000004 cycles: 3683255312 heartbeat IPC: 0.176628 cumulative IPC: 0.170784 (Simulation time: 5 hr 3 min 37 sec) 
Heartbeat CPU 0 instructions: 640000002 cycles: 3739889557 heartbeat IPC: 0.176572 cumulative IPC: 0.170872 (Simulation time: 5 hr 7 min 53 sec) 
Heartbeat CPU 0 instructions: 650000003 cycles: 3796511212 heartbeat IPC: 0.176611 cumulative IPC: 0.170958 (Simulation time: 5 hr 12 min 58 sec) 
Heartbeat CPU 0 instructions: 660000004 cycles: 3852781212 heartbeat IPC: 0.177715 cumulative IPC: 0.171056 (Simulation time: 5 hr 18 min 28 sec) 
Heartbeat CPU 0 instructions: 670000004 cycles: 3909469343 heartbeat IPC: 0.176404 cumulative IPC: 0.171134 (Simulation time: 5 hr 23 min 51 sec) 
Heartbeat CPU 0 instructions: 680000001 cycles: 3966099054 heartbeat IPC: 0.176586 cumulative IPC: 0.171212 (Simulation time: 5 hr 29 min 7 sec) 
Heartbeat CPU 0 instructions: 690000003 cycles: 4022662869 heartbeat IPC: 0.176792 cumulative IPC: 0.17129 (Simulation time: 5 hr 34 min 36 sec) 
Heartbeat CPU 0 instructions: 700000001 cycles: 4082556065 heartbeat IPC: 0.166964 cumulative IPC: 0.171227 (Simulation time: 5 hr 40 min 20 sec) 
Heartbeat CPU 0 instructions: 710000002 cycles: 4186600850 heartbeat IPC: 0.0961125 cumulative IPC: 0.16936 (Simulation time: 5 hr 50 min 2 sec) 
Heartbeat CPU 0 instructions: 720000000 cycles: 4243140742 heartbeat IPC: 0.176866 cumulative IPC: 0.16946 (Simulation time: 5 hr 55 min 29 sec) 
Heartbeat CPU 0 instructions: 730000000 cycles: 4299752887 heartbeat IPC: 0.176641 cumulative IPC: 0.169554 (Simulation time: 6 hr 0 min 57 sec) 
Heartbeat CPU 0 instructions: 740000003 cycles: 4356894992 heartbeat IPC: 0.175002 cumulative IPC: 0.169626 (Simulation time: 6 hr 6 min 26 sec) 
Heartbeat CPU 0 instructions: 750000002 cycles: 4415529753 heartbeat IPC: 0.170547 cumulative IPC: 0.169638 (Simulation time: 6 hr 12 min 1 sec) 
Heartbeat CPU 0 instructions: 760000002 cycles: 4476458417 heartbeat IPC: 0.164126 cumulative IPC: 0.169563 (Simulation time: 6 hr 17 min 56 sec) 
Heartbeat CPU 0 instructions: 770000004 cycles: 4538517649 heartbeat IPC: 0.161136 cumulative IPC: 0.169448 (Simulation time: 6 hr 23 min 46 sec) 
Heartbeat CPU 0 instructions: 780000001 cycles: 4603130861 heartbeat IPC: 0.154767 cumulative IPC: 0.169242 (Simulation time: 6 hr 29 min 36 sec) 
Heartbeat CPU 0 instructions: 790000004 cycles: 4667786523 heartbeat IPC: 0.154666 cumulative IPC: 0.16904 (Simulation time: 6 hr 35 min 13 sec) 
Heartbeat CPU 0 instructions: 800000002 cycles: 4732169966 heartbeat IPC: 0.155319 cumulative IPC: 0.168853 (Simulation time: 6 hr 40 min 24 sec) 
Heartbeat CPU 0 instructions: 810000001 cycles: 4796839768 heartbeat IPC: 0.154632 cumulative IPC: 0.168662 (Simulation time: 6 hr 45 min 2 sec) 
Heartbeat CPU 0 instructions: 820000004 cycles: 4862524230 heartbeat IPC: 0.152243 cumulative IPC: 0.16844 (Simulation time: 6 hr 49 min 21 sec) 
Heartbeat CPU 0 instructions: 830000000 cycles: 4926691081 heartbeat IPC: 0.155844 cumulative IPC: 0.168276 (Simulation time: 6 hr 53 min 27 sec) 
Heartbeat CPU 0 instructions: 840000004 cycles: 4988993806 heartbeat IPC: 0.160507 cumulative IPC: 0.168179 (Simulation time: 6 hr 57 min 51 sec) 
Heartbeat CPU 0 instructions: 850000000 cycles: 5050098803 heartbeat IPC: 0.163653 cumulative IPC: 0.168124 (Simulation time: 7 hr 2 min 34 sec) 
Heartbeat CPU 0 instructions: 860000000 cycles: 5109735331 heartbeat IPC: 0.167682 cumulative IPC: 0.168119 (Simulation time: 7 hr 7 min 24 sec) 
Heartbeat CPU 0 instructions: 870000001 cycles: 5167430941 heartbeat IPC: 0.173323 cumulative IPC: 0.168177 (Simulation time: 7 hr 12 min 37 sec) 
Heartbeat CPU 0 instructions: 880000003 cycles: 5224008812 heartbeat IPC: 0.176748 cumulative IPC: 0.16827 (Simulation time: 7 hr 17 min 38 sec) 
Heartbeat CPU 0 instructions: 890000002 cycles: 5280562824 heartbeat IPC: 0.176822 cumulative IPC: 0.168361 (Simulation time: 7 hr 22 min 26 sec) 
Heartbeat CPU 0 instructions: 900000000 cycles: 5337246416 heartbeat IPC: 0.176418 cumulative IPC: 0.168447 (Simulation time: 7 hr 27 min 4 sec) 
Heartbeat CPU 0 instructions: 910000001 cycles: 5393830335 heartbeat IPC: 0.176729 cumulative IPC: 0.168534 (Simulation time: 7 hr 31 min 13 sec) 
Heartbeat CPU 0 instructions: 920000002 cycles: 5450021814 heartbeat IPC: 0.177963 cumulative IPC: 0.168631 (Simulation time: 7 hr 35 min 10 sec) 
Heartbeat CPU 0 instructions: 930000004 cycles: 5506635562 heartbeat IPC: 0.176636 cumulative IPC: 0.168713 (Simulation time: 7 hr 39 min 11 sec) 
Heartbeat CPU 0 instructions: 940000002 cycles: 5563283383 heartbeat IPC: 0.176529 cumulative IPC: 0.168793 (Simulation time: 7 hr 42 min 59 sec) 
Heartbeat CPU 0 instructions: 950000001 cycles: 5619878186 heartbeat IPC: 0.176695 cumulative IPC: 0.168872 (Simulation time: 7 hr 47 min 0 sec) 
Heartbeat CPU 0 instructions: 960000003 cycles: 5676465949 heartbeat IPC: 0.176717 cumulative IPC: 0.168951 (Simulation time: 7 hr 51 min 5 sec) 
Heartbeat CPU 0 instructions: 970000000 cycles: 5733116079 heartbeat IPC: 0.176522 cumulative IPC: 0.169025 (Simulation time: 7 hr 54 min 55 sec) 
Heartbeat CPU 0 instructions: 980000003 cycles: 5789381066 heartbeat IPC: 0.17773 cumulative IPC: 0.16911 (Simulation time: 7 hr 58 min 33 sec) 
Heartbeat CPU 0 instructions: 990000003 cycles: 5846014744 heartbeat IPC: 0.176573 cumulative IPC: 0.169182 (Simulation time: 8 hr 2 min 14 sec) 
Heartbeat CPU 0 instructions: 1000000003 cycles: 5902673497 heartbeat IPC: 0.176495 cumulative IPC: 0.169253 (Simulation time: 8 hr 6 min 6 sec) 
Finished CPU 0 instructions: 1000000001 cycles: 5907964608 cumulative IPC: 0.169263 (Simulation time: 8 hr 6 min 25 sec) 

ChampSim completed all CPUs

Region of Interest Statistics

CPU 0 cumulative IPC: 0.169263 instructions: 1000000001 cycles: 5907964608
cpu0_DTLB TOTAL     ACCESS:  141671140  HIT:  141207411  MISS:     463729
cpu0_DTLB LOAD      ACCESS:   74622692  HIT:   74506506  MISS:     116186
cpu0_DTLB RFO       ACCESS:   67048448  HIT:   66700905  MISS:     347543
cpu0_DTLB PREFETCH  ACCESS:          0  HIT:          0  MISS:          0
cpu0_DTLB WRITEBACK ACCESS:          0  HIT:          0  MISS:          0
cpu0_DTLB TRANSLATION ACCESS:          0  HIT:          0  MISS:          0
cpu0_DTLB PREFETCH  REQUESTED:          0  ISSUED:          0  USEFUL:          0  USELESS:          0
cpu0_DTLB AVERAGE MISS LATENCY: 277.246 cycles
cpu0_ITLB TOTAL     ACCESS:     547970  HIT:     547969  MISS:          1
cpu0_ITLB LOAD      ACCESS:     547970  HIT:     547969  MISS:          1
cpu0_ITLB RFO       ACCESS:          0  HIT:          0  MISS:          0
cpu0_ITLB PREFETCH  ACCESS:          0  HIT:          0  MISS:          0
cpu0_ITLB WRITEBACK ACCESS:          0  HIT:          0  MISS:          0
cpu0_ITLB TRANSLATION ACCESS:          0  HIT:          0  MISS:          0
cpu0_ITLB PREFETCH  REQUESTED:          0  ISSUED:          0  USEFUL:          0  USELESS:          0
cpu0_ITLB AVERAGE MISS LATENCY: 1142 cycles
cpu0_L1I TOTAL     ACCESS:         17  HIT:          9  MISS:          8
cpu0_L1I LOAD      ACCESS:         17  HIT:          9  MISS:          8
cpu0_L1I RFO       ACCESS:          0  HIT:          0  MISS:          0
cpu0_L1I PREFETCH  ACCESS:          0  HIT:          0  MISS:          0
cpu0_L1I WRITEBACK ACCESS:          0  HIT:          0  MISS:          0
cpu0_L1I TRANSLATION ACCESS:          0  HIT:          0  MISS:          0
cpu0_L1I PREFETCH  REQUESTED:          0  ISSUED:          0  USEFUL:          0  USELESS:          0
cpu0_L1I AVERAGE MISS LATENCY: 1169 cycles
cpu0_STLB TOTAL     ACCESS:     463730  HIT:         57  MISS:     463673
cpu0_STLB LOAD      ACCESS:     116187  HIT:         41  MISS:     116146
cpu0_STLB RFO       ACCESS:     347543  HIT:         16  MISS:     347527
cpu0_STLB PREFETCH  ACCESS:          0  HIT:          0  MISS:          0
cpu0_STLB WRITEBACK ACCESS:          0  HIT:          0  MISS:          0
cpu0_STLB TRANSLATION ACCESS:          0  HIT:          0  MISS:          0
cpu0_STLB PREFETCH  REQUESTED:          0  ISSUED:          0  USEFUL:          0  USELESS:          0
cpu0_STLB AVERAGE MISS LATENCY: 268.281 cycles
cpu0_L1D TOTAL     ACCESS:  227561268  HIT:  178471199  MISS:   49090069
cpu0_L1D LOAD      ACCESS:   65140214  HIT:   60185148  MISS:    4955066
cpu0_L1D RFO       ACCESS:  102573504  HIT:   61076194  MISS:   41497310
cpu0_L1D PREFETCH  ACCESS:   59383995  HIT:   56798487  MISS:    2585508
cpu0_L1D WRITEBACK ACCESS:          0  HIT:          0  MISS:          0
cpu0_L1D TRANSLATION ACCESS:     463555  HIT:     411370  MISS:      52185
cpu0_L1D PREFETCH  REQUESTED:   66816522  ISSUED:   65574137  USEFUL:    2830423  USELESS:      57306
cpu0_L1D AVERAGE MISS LATENCY: 843.007 cycles
cpu0_L2C TOTAL     ACCESS:   92370394  HIT:   61780357  MISS:   30590037
cpu0_L2C LOAD      ACCESS:    4652854  HIT:       6263  MISS:    4646591
cpu0_L2C RFO       ACCESS:   41497296  HIT:   18707765  MISS:   22789531
cpu0_L2C PREFETCH  ACCESS:    4670514  HIT:    1518664  MISS:    3151850
cpu0_L2C WRITEBACK ACCESS:   41497545  HIT:   41496254  MISS:       1291
cpu0_L2C TRANSLATION ACCESS:      52185  HIT:      51411  MISS:        774
cpu0_L2C PREFETCH  REQUESTED:    2849224  ISSUED:    2839599  USEFUL:     227949  USELESS:      42906
cpu0_L2C AVERAGE MISS LATENCY: 1354.03 cycles
LLC TOTAL     ACCESS:   54428247  HIT:   23150129  MISS:   31278118
LLC LOAD      ACCESS:    4646591  HIT:        220  MISS:    4646371
LLC RFO       ACCESS:   22789377  HIT:     560815  MISS:   22228562
LLC PREFETCH  ACCESS:    4200686  HIT:     979830  MISS:    3220856
LLC WRITEBACK ACCESS:   22790819  HIT:   21609160  MISS:    1181659
LLC TRANSLATION ACCESS:        774  HIT:        104  MISS:        670
LLC PREFETCH  REQUESTED:          0  ISSUED:          0  USEFUL:          0  USELESS:          0
LLC AVERAGE MISS LATENCY: 1314.45 cycles

DRAM Statistics
 CHANNEL 0
 RQ ROW_BUFFER_HIT:     372413  ROW_BUFFER_MISS:   29724043
 DBUS AVG_CONGESTED_CYCLE:      3.999
 WQ ROW_BUFFER_HIT:     135324  ROW_BUFFER_MISS:   22087040  FULL:          0


CPU 0 Branch Prediction Accuracy: 99.7658% MPKI: 0.032932 Average ROB Occupancy at Mispredict: 127.583
Branch type MPKI
BRANCH_DIRECT_JUMP: 1e-06
BRANCH_INDIRECT: 0
BRANCH_CONDITIONAL: 0.032926
BRANCH_DIRECT_CALL: 2e-06
BRANCH_INDIRECT_CALL: 0
BRANCH_RETURN: 3e-06

