
*** ChampSim Multicore Out-of-Order Simulator ***

Warmup Instructions: 1000000
Simulation Instructions: 1000000000
Number of CPUs: 1
Off-chip DRAM Size: 4 GiB Channels: 1 Width: 64-bit Data Rate: 3200 MT/s

VirtualMemory physical capacity: 8588881920 num_ppages: 2096895
VirtualMemory page size: 4096 log2_page_size: 12

CPU 0 runs tracer/pin/traces/spec2k17/619.lbm_s-4268B.champsimtrace.xz
Basic BTB sets: 1024 ways: 8 indirect buffer size: 4096 RAS size: 64
cpu0_L1D next line prefetcher
cpu0_L2C IP-based stride prefetcher
WARNING: The extended signature CACHE::prefetch_line(ip, base_addr, pf_addr, fill_this_level, prefetch_metadata) is deprecated.
WARNING: Use CACHE::prefetch_line(pf_addr, fill_this_level, prefetch_metadata) instead.

Warmup complete CPU 0 instructions: 1000003 cycles: 273200 (Simulation time: 0 hr 0 min 3 sec) 

Heartbeat CPU 0 instructions: 10000004 cycles: 78180743 heartbeat IPC: 0.127909 cumulative IPC: 0.115522 (Simulation time: 0 hr 4 min 28 sec) 
Heartbeat CPU 0 instructions: 20000001 cycles: 164443374 heartbeat IPC: 0.115925 cumulative IPC: 0.115734 (Simulation time: 0 hr 9 min 30 sec) 
Heartbeat CPU 0 instructions: 30000000 cycles: 249863557 heartbeat IPC: 0.117068 cumulative IPC: 0.11619 (Simulation time: 0 hr 15 min 18 sec) 
Heartbeat CPU 0 instructions: 40000002 cycles: 337070811 heartbeat IPC: 0.114669 cumulative IPC: 0.115797 (Simulation time: 0 hr 22 min 30 sec) 
Heartbeat CPU 0 instructions: 50000000 cycles: 424540360 heartbeat IPC: 0.114325 cumulative IPC: 0.115493 (Simulation time: 0 hr 31 min 5 sec) 
Heartbeat CPU 0 instructions: 60000003 cycles: 513371672 heartbeat IPC: 0.112573 cumulative IPC: 0.114988 (Simulation time: 0 hr 40 min 9 sec) 
Heartbeat CPU 0 instructions: 70000001 cycles: 601453216 heartbeat IPC: 0.113531 cumulative IPC: 0.114774 (Simulation time: 0 hr 49 min 4 sec) 
Heartbeat CPU 0 instructions: 80000002 cycles: 687961467 heartbeat IPC: 0.115596 cumulative IPC: 0.114878 (Simulation time: 0 hr 57 min 53 sec) 
Heartbeat CPU 0 instructions: 90000004 cycles: 775560702 heartbeat IPC: 0.114156 cumulative IPC: 0.114796 (Simulation time: 1 hr 6 min 43 sec) 
Heartbeat CPU 0 instructions: 100000004 cycles: 861839848 heartbeat IPC: 0.115903 cumulative IPC: 0.114907 (Simulation time: 1 hr 15 min 25 sec) 
Heartbeat CPU 0 instructions: 110000004 cycles: 949457959 heartbeat IPC: 0.114132 cumulative IPC: 0.114835 (Simulation time: 1 hr 24 min 15 sec) 
Heartbeat CPU 0 instructions: 120000000 cycles: 1038164177 heartbeat IPC: 0.112732 cumulative IPC: 0.114656 (Simulation time: 1 hr 33 min 2 sec) 
Heartbeat CPU 0 instructions: 130000001 cycles: 1124650185 heartbeat IPC: 0.115626 cumulative IPC: 0.11473 (Simulation time: 1 hr 41 min 6 sec) 
Heartbeat CPU 0 instructions: 140000001 cycles: 1211744413 heartbeat IPC: 0.114818 cumulative IPC: 0.114737 (Simulation time: 1 hr 48 min 58 sec) 
Heartbeat CPU 0 instructions: 150000001 cycles: 1300312401 heartbeat IPC: 0.112908 cumulative IPC: 0.114612 (Simulation time: 1 hr 55 min 56 sec) 
Heartbeat CPU 0 instructions: 160000001 cycles: 1389733406 heartbeat IPC: 0.111831 cumulative IPC: 0.114433 (Simulation time: 2 hr 1 min 48 sec) 
Heartbeat CPU 0 instructions: 170000001 cycles: 1478395832 heartbeat IPC: 0.112787 cumulative IPC: 0.114334 (Simulation time: 2 hr 8 min 6 sec) 
Heartbeat CPU 0 instructions: 180000004 cycles: 1566792089 heartbeat IPC: 0.113127 cumulative IPC: 0.114266 (Simulation time: 2 hr 15 min 14 sec) 
Heartbeat CPU 0 instructions: 190000004 cycles: 1655809069 heartbeat IPC: 0.112338 cumulative IPC: 0.114162 (Simulation time: 2 hr 23 min 6 sec) 
Heartbeat CPU 0 instructions: 200000002 cycles: 1744332526 heartbeat IPC: 0.112964 cumulative IPC: 0.114102 (Simulation time: 2 hr 31 min 11 sec) 
Heartbeat CPU 0 instructions: 210000001 cycles: 1834397879 heartbeat IPC: 0.11103 cumulative IPC: 0.113951 (Simulation time: 2 hr 38 min 30 sec) 
Heartbeat CPU 0 instructions: 220000001 cycles: 1924323514 heartbeat IPC: 0.111203 cumulative IPC: 0.113822 (Simulation time: 2 hr 45 min 39 sec) 
Heartbeat CPU 0 instructions: 230000002 cycles: 2013268167 heartbeat IPC: 0.112429 cumulative IPC: 0.113761 (Simulation time: 2 hr 52 min 9 sec) 
Heartbeat CPU 0 instructions: 240000000 cycles: 2102481319 heartbeat IPC: 0.112091 cumulative IPC: 0.11369 (Simulation time: 2 hr 58 min 57 sec) 
Heartbeat CPU 0 instructions: 250000003 cycles: 2189669421 heartbeat IPC: 0.114695 cumulative IPC: 0.11373 (Simulation time: 3 hr 5 min 20 sec) 
Heartbeat CPU 0 instructions: 260000000 cycles: 2277108175 heartbeat IPC: 0.114366 cumulative IPC: 0.113754 (Simulation time: 3 hr 11 min 9 sec) 
Heartbeat CPU 0 instructions: 270000003 cycles: 2364463395 heartbeat IPC: 0.114475 cumulative IPC: 0.113781 (Simulation time: 3 hr 16 min 36 sec) 
Heartbeat CPU 0 instructions: 280000001 cycles: 2450515014 heartbeat IPC: 0.116209 cumulative IPC: 0.113866 (Simulation time: 3 hr 21 min 48 sec) 
Heartbeat CPU 0 instructions: 290000001 cycles: 2537760549 heartbeat IPC: 0.114619 cumulative IPC: 0.113892 (Simulation time: 3 hr 27 min 2 sec) 
Heartbeat CPU 0 instructions: 300000001 cycles: 2626034389 heartbeat IPC: 0.113284 cumulative IPC: 0.113872 (Simulation time: 3 hr 32 min 5 sec) 
Heartbeat CPU 0 instructions: 310000004 cycles: 2713976283 heartbeat IPC: 0.113711 cumulative IPC: 0.113867 (Simulation time: 3 hr 37 min 3 sec) 
Heartbeat CPU 0 instructions: 320000001 cycles: 2801516718 heartbeat IPC: 0.114233 cumulative IPC: 0.113878 (Simulation time: 3 hr 42 min 0 sec) 
Heartbeat CPU 0 instructions: 330000000 cycles: 2888646931 heartbeat IPC: 0.114771 cumulative IPC: 0.113905 (Simulation time: 3 hr 46 min 56 sec) 
Heartbeat CPU 0 instructions: 340000003 cycles: 2974460284 heartbeat IPC: 0.116532 cumulative IPC: 0.113981 (Simulation time: 3 hr 51 min 48 sec) 
Heartbeat CPU 0 instructions: 350000002 cycles: 3059377045 heartbeat IPC: 0.117762 cumulative IPC: 0.114086 (Simulation time: 3 hr 56 min 36 sec) 
Heartbeat CPU 0 instructions: 360000002 cycles: 3146423468 heartbeat IPC: 0.114881 cumulative IPC: 0.114108 (Simulation time: 4 hr 1 min 31 sec) 
Heartbeat CPU 0 instructions: 370000002 cycles: 3231565729 heartbeat IPC: 0.11745 cumulative IPC: 0.114196 (Simulation time: 4 hr 6 min 20 sec) 
Heartbeat CPU 0 instructions: 380000000 cycles: 3317650639 heartbeat IPC: 0.116164 cumulative IPC: 0.114247 (Simulation time: 4 hr 11 min 13 sec) 
Heartbeat CPU 0 instructions: 390000003 cycles: 3403664012 heartbeat IPC: 0.116261 cumulative IPC: 0.114298 (Simulation time: 4 hr 16 min 5 sec) 
Heartbeat CPU 0 instructions: 400000000 cycles: 3488203690 heartbeat IPC: 0.118288 cumulative IPC: 0.114394 (Simulation time: 4 hr 20 min 52 sec) 
Heartbeat CPU 0 instructions: 410000003 cycles: 3574310467 heartbeat IPC: 0.116135 cumulative IPC: 0.114436 (Simulation time: 4 hr 25 min 45 sec) 
Heartbeat CPU 0 instructions: 420000004 cycles: 3660497013 heartbeat IPC: 0.116027 cumulative IPC: 0.114474 (Simulation time: 4 hr 30 min 38 sec) 
Heartbeat CPU 0 instructions: 430000000 cycles: 3748961920 heartbeat IPC: 0.113039 cumulative IPC: 0.11444 (Simulation time: 4 hr 35 min 38 sec) 
Heartbeat CPU 0 instructions: 440000000 cycles: 3836726778 heartbeat IPC: 0.113941 cumulative IPC: 0.114429 (Simulation time: 4 hr 40 min 36 sec) 
Heartbeat CPU 0 instructions: 450000001 cycles: 3922332055 heartbeat IPC: 0.116815 cumulative IPC: 0.114481 (Simulation time: 4 hr 45 min 27 sec) 
Heartbeat CPU 0 instructions: 460000002 cycles: 4005095567 heartbeat IPC: 0.120826 cumulative IPC: 0.114612 (Simulation time: 4 hr 50 min 9 sec) 
Heartbeat CPU 0 instructions: 470000002 cycles: 4087634269 heartbeat IPC: 0.121155 cumulative IPC: 0.114744 (Simulation time: 4 hr 54 min 51 sec) 
Heartbeat CPU 0 instructions: 480000004 cycles: 4167407258 heartbeat IPC: 0.125356 cumulative IPC: 0.114947 (Simulation time: 4 hr 59 min 24 sec) 
Heartbeat CPU 0 instructions: 490000002 cycles: 4243386230 heartbeat IPC: 0.131615 cumulative IPC: 0.115246 (Simulation time: 5 hr 3 min 44 sec) 
Heartbeat CPU 0 instructions: 500000000 cycles: 4316092130 heartbeat IPC: 0.13754 cumulative IPC: 0.115621 (Simulation time: 5 hr 7 min 54 sec) 
Heartbeat CPU 0 instructions: 510000003 cycles: 4386566597 heartbeat IPC: 0.141895 cumulative IPC: 0.116043 (Simulation time: 5 hr 11 min 57 sec) 
Heartbeat CPU 0 instructions: 520000003 cycles: 4453147634 heartbeat IPC: 0.150193 cumulative IPC: 0.116554 (Simulation time: 5 hr 15 min 48 sec) 
Heartbeat CPU 0 instructions: 530000001 cycles: 4516662927 heartbeat IPC: 0.157442 cumulative IPC: 0.117129 (Simulation time: 5 hr 19 min 28 sec) 
Heartbeat CPU 0 instructions: 540000003 cycles: 4578397092 heartbeat IPC: 0.161985 cumulative IPC: 0.117734 (Simulation time: 5 hr 23 min 4 sec) 
Heartbeat CPU 0 instructions: 550000004 cycles: 4636874557 heartbeat IPC: 0.171006 cumulative IPC: 0.118406 (Simulation time: 5 hr 26 min 29 sec) 
Heartbeat CPU 0 instructions: 560000002 cycles: 4695253145 heartbeat IPC: 0.171296 cumulative IPC: 0.119063 (Simulation time: 5 hr 29 min 54 sec) 
Heartbeat CPU 0 instructions: 570000003 cycles: 4750402264 heartbeat IPC: 0.181327 cumulative IPC: 0.119786 (Simulation time: 5 hr 33 min 8 sec) 
Heartbeat CPU 0 instructions: 580000000 cycles: 4805403932 heartbeat IPC: 0.181813 cumulative IPC: 0.120496 (Simulation time: 5 hr 36 min 22 sec) 
Heartbeat CPU 0 instructions: 590000003 cycles: 4858301051 heartbeat IPC: 0.189046 cumulative IPC: 0.121243 (Simulation time: 5 hr 39 min 29 sec) 
Heartbeat CPU 0 instructions: 600000004 cycles: 4909923719 heartbeat IPC: 0.193713 cumulative IPC: 0.122005 (Simulation time: 5 hr 42 min 32 sec) 
Heartbeat CPU 0 instructions: 610000002 cycles: 4959808342 heartbeat IPC: 0.200463 cumulative IPC: 0.122794 (Simulation time: 5 hr 45 min 29 sec) 
Heartbeat CPU 0 instructions: 620000003 cycles: 5010053010 heartbeat IPC: 0.199026 cumulative IPC: 0.123558 (Simulation time: 5 hr 48 min 27 sec) 
Heartbeat CPU 0 instructions: 630000004 cycles: 5059539766 heartbeat IPC: 0.202074 cumulative IPC: 0.124326 (Simulation time: 5 hr 51 min 23 sec) 
Heartbeat CPU 0 instructions: 640000002 cycles: 5107977691 heartbeat IPC: 0.20645 cumulative IPC: 0.125105 (Simulation time: 5 hr 54 min 16 sec) 
Heartbeat CPU 0 instructions: 650000001 cycles: 5156359769 heartbeat IPC: 0.206688 cumulative IPC: 0.125871 (Simulation time: 5 hr 57 min 8 sec) 
Heartbeat CPU 0 instructions: 660000002 cycles: 5203346191 heartbeat IPC: 0.212827 cumulative IPC: 0.126656 (Simulation time: 5 hr 59 min 56 sec) 
Heartbeat CPU 0 instructions: 670000001 cycles: 5250788486 heartbeat IPC: 0.210782 cumulative IPC: 0.127416 (Simulation time: 6 hr 2 min 46 sec) 
Heartbeat CPU 0 instructions: 680000004 cycles: 5297630901 heartbeat IPC: 0.213482 cumulative IPC: 0.128177 (Simulation time: 6 hr 5 min 34 sec) 
Heartbeat CPU 0 instructions: 690000001 cycles: 5344705877 heartbeat IPC: 0.212427 cumulative IPC: 0.128919 (Simulation time: 6 hr 8 min 23 sec) 
Heartbeat CPU 0 instructions: 700000000 cycles: 5391680292 heartbeat IPC: 0.212882 cumulative IPC: 0.129651 (Simulation time: 6 hr 11 min 11 sec) 
Heartbeat CPU 0 instructions: 710000002 cycles: 5438398234 heartbeat IPC: 0.214051 cumulative IPC: 0.130376 (Simulation time: 6 hr 13 min 58 sec) 
Heartbeat CPU 0 instructions: 720000000 cycles: 5484403092 heartbeat IPC: 0.217368 cumulative IPC: 0.131106 (Simulation time: 6 hr 16 min 42 sec) 
Heartbeat CPU 0 instructions: 730000004 cycles: 5530768826 heartbeat IPC: 0.215677 cumulative IPC: 0.131815 (Simulation time: 6 hr 19 min 28 sec) 
Heartbeat CPU 0 instructions: 740000003 cycles: 5576649888 heartbeat IPC: 0.217955 cumulative IPC: 0.132523 (Simulation time: 6 hr 22 min 13 sec) 
Heartbeat CPU 0 instructions: 750000004 cycles: 5622682342 heartbeat IPC: 0.217238 cumulative IPC: 0.133217 (Simulation time: 6 hr 24 min 58 sec) 
Heartbeat CPU 0 instructions: 760000001 cycles: 5668348731 heartbeat IPC: 0.218979 cumulative IPC: 0.133908 (Simulation time: 6 hr 27 min 42 sec) 
Heartbeat CPU 0 instructions: 770000002 cycles: 5714293834 heartbeat IPC: 0.217651 cumulative IPC: 0.134581 (Simulation time: 6 hr 30 min 27 sec) 
Heartbeat CPU 0 instructions: 780000003 cycles: 5759786962 heartbeat IPC: 0.219813 cumulative IPC: 0.135254 (Simulation time: 6 hr 33 min 11 sec) 
Heartbeat CPU 0 instructions: 790000004 cycles: 5805729378 heartbeat IPC: 0.217664 cumulative IPC: 0.135907 (Simulation time: 6 hr 35 min 56 sec) 
Heartbeat CPU 0 instructions: 800000001 cycles: 5851121351 heartbeat IPC: 0.220303 cumulative IPC: 0.136561 (Simulation time: 6 hr 38 min 39 sec) 
Heartbeat CPU 0 instructions: 810000002 cycles: 5897095121 heartbeat IPC: 0.217515 cumulative IPC: 0.137193 (Simulation time: 6 hr 41 min 24 sec) 
Heartbeat CPU 0 instructions: 820000003 cycles: 5943130338 heartbeat IPC: 0.217225 cumulative IPC: 0.137812 (Simulation time: 6 hr 44 min 9 sec) 
Heartbeat CPU 0 instructions: 830000000 cycles: 5988541448 heartbeat IPC: 0.22021 cumulative IPC: 0.138437 (Simulation time: 6 hr 46 min 53 sec) 
Heartbeat CPU 0 instructions: 840000001 cycles: 6034445835 heartbeat IPC: 0.217844 cumulative IPC: 0.139041 (Simulation time: 6 hr 49 min 38 sec) 
Heartbeat CPU 0 instructions: 850000003 cycles: 6079803414 heartbeat IPC: 0.22047 cumulative IPC: 0.139649 (Simulation time: 6 hr 52 min 21 sec) 
Heartbeat CPU 0 instructions: 860000004 cycles: 6125705034 heartbeat IPC: 0.217857 cumulative IPC: 0.140235 (Simulation time: 6 hr 55 min 6 sec) 
Heartbeat CPU 0 instructions: 870000001 cycles: 6171025171 heartbeat IPC: 0.220652 cumulative IPC: 0.140826 (Simulation time: 6 hr 57 min 48 sec) 
Heartbeat CPU 0 instructions: 880000002 cycles: 6217001680 heartbeat IPC: 0.217502 cumulative IPC: 0.141393 (Simulation time: 7 hr 0 min 33 sec) 
Heartbeat CPU 0 instructions: 890000004 cycles: 6262368550 heartbeat IPC: 0.220425 cumulative IPC: 0.141965 (Simulation time: 7 hr 3 min 16 sec) 
Heartbeat CPU 0 instructions: 900000000 cycles: 6308298246 heartbeat IPC: 0.217724 cumulative IPC: 0.142517 (Simulation time: 7 hr 6 min 0 sec) 
Heartbeat CPU 0 instructions: 910000002 cycles: 6353632780 heartbeat IPC: 0.220582 cumulative IPC: 0.143074 (Simulation time: 7 hr 8 min 43 sec) 
Heartbeat CPU 0 instructions: 920000003 cycles: 6399599642 heartbeat IPC: 0.217548 cumulative IPC: 0.143609 (Simulation time: 7 hr 11 min 28 sec) 
Heartbeat CPU 0 instructions: 930000000 cycles: 6445013876 heartbeat IPC: 0.220195 cumulative IPC: 0.144149 (Simulation time: 7 hr 14 min 11 sec) 
Heartbeat CPU 0 instructions: 940000002 cycles: 6493146306 heartbeat IPC: 0.20776 cumulative IPC: 0.14462 (Simulation time: 7 hr 17 min 3 sec) 
Heartbeat CPU 0 instructions: 950000000 cycles: 6611609002 heartbeat IPC: 0.0844147 cumulative IPC: 0.143541 (Simulation time: 7 hr 23 min 44 sec) 
Heartbeat CPU 0 instructions: 960000001 cycles: 6706862753 heartbeat IPC: 0.104983 cumulative IPC: 0.142994 (Simulation time: 7 hr 29 min 10 sec) 
Heartbeat CPU 0 instructions: 970000001 cycles: 6754828742 heartbeat IPC: 0.208481 cumulative IPC: 0.143459 (Simulation time: 7 hr 32 min 1 sec) 
Heartbeat CPU 0 instructions: 980000004 cycles: 6800184189 heartbeat IPC: 0.220481 cumulative IPC: 0.143972 (Simulation time: 7 hr 34 min 45 sec) 
Heartbeat CPU 0 instructions: 990000004 cycles: 6846147657 heartbeat IPC: 0.217564 cumulative IPC: 0.144467 (Simulation time: 7 hr 37 min 30 sec) 
Heartbeat CPU 0 instructions: 1000000001 cycles: 6891539989 heartbeat IPC: 0.220301 cumulative IPC: 0.144966 (Simulation time: 7 hr 40 min 14 sec) 
Finished CPU 0 instructions: 1000000002 cycles: 6895817396 cumulative IPC: 0.145015 (Simulation time: 7 hr 40 min 30 sec) 

ChampSim completed all CPUs

Region of Interest Statistics

CPU 0 cumulative IPC: 0.145015 instructions: 1000000002 cycles: 6895817396
cpu0_DTLB TOTAL     ACCESS:  179550815  HIT:  178515088  MISS:    1035727
cpu0_DTLB LOAD      ACCESS:   94600367  HIT:   94459668  MISS:     140699
cpu0_DTLB RFO       ACCESS:   84950448  HIT:   84055420  MISS:     895028
cpu0_DTLB PREFETCH  ACCESS:          0  HIT:          0  MISS:          0
cpu0_DTLB WRITEBACK ACCESS:          0  HIT:          0  MISS:          0
cpu0_DTLB TRANSLATION ACCESS:          0  HIT:          0  MISS:          0
cpu0_DTLB PREFETCH  REQUESTED:          0  ISSUED:          0  USEFUL:          0  USELESS:          0
cpu0_DTLB AVERAGE MISS LATENCY: 508.152 cycles
cpu0_ITLB TOTAL     ACCESS:   10131088  HIT:   10131087  MISS:          1
cpu0_ITLB LOAD      ACCESS:   10131088  HIT:   10131087  MISS:          1
cpu0_ITLB RFO       ACCESS:          0  HIT:          0  MISS:          0
cpu0_ITLB PREFETCH  ACCESS:          0  HIT:          0  MISS:          0
cpu0_ITLB WRITEBACK ACCESS:          0  HIT:          0  MISS:          0
cpu0_ITLB TRANSLATION ACCESS:          0  HIT:          0  MISS:          0
cpu0_ITLB PREFETCH  REQUESTED:          0  ISSUED:          0  USEFUL:          0  USELESS:          0
cpu0_ITLB AVERAGE MISS LATENCY: 2391 cycles
cpu0_L1I TOTAL     ACCESS:   26414178  HIT:   26414175  MISS:          3
cpu0_L1I LOAD      ACCESS:   26414178  HIT:   26414175  MISS:          3
cpu0_L1I RFO       ACCESS:          0  HIT:          0  MISS:          0
cpu0_L1I PREFETCH  ACCESS:          0  HIT:          0  MISS:          0
cpu0_L1I WRITEBACK ACCESS:          0  HIT:          0  MISS:          0
cpu0_L1I TRANSLATION ACCESS:          0  HIT:          0  MISS:          0
cpu0_L1I PREFETCH  REQUESTED:          0  ISSUED:          0  USEFUL:          0  USELESS:          0
cpu0_L1I AVERAGE MISS LATENCY: 624 cycles
cpu0_STLB TOTAL     ACCESS:    1035728  HIT:     473069  MISS:     562659
cpu0_STLB LOAD      ACCESS:     140700  HIT:          1  MISS:     140699
cpu0_STLB RFO       ACCESS:     895028  HIT:     473068  MISS:     421960
cpu0_STLB PREFETCH  ACCESS:          0  HIT:          0  MISS:          0
cpu0_STLB WRITEBACK ACCESS:          0  HIT:          0  MISS:          0
cpu0_STLB TRANSLATION ACCESS:          0  HIT:          0  MISS:          0
cpu0_STLB PREFETCH  REQUESTED:          0  ISSUED:          0  USEFUL:          0  USELESS:          0
cpu0_STLB AVERAGE MISS LATENCY: 918.69 cycles
cpu0_L1D TOTAL     ACCESS:  346789456  HIT:  287125245  MISS:   59664211
cpu0_L1D LOAD      ACCESS:   95976967  HIT:   89099147  MISS:    6877820
cpu0_L1D RFO       ACCESS:  167196809  HIT:  116784242  MISS:   50412567
cpu0_L1D PREFETCH  ACCESS:   83084854  HIT:   80796516  MISS:    2288338
cpu0_L1D WRITEBACK ACCESS:          0  HIT:          0  MISS:          0
cpu0_L1D TRANSLATION ACCESS:     530826  HIT:     445340  MISS:      85486
cpu0_L1D PREFETCH  REQUESTED:   97379861  ISSUED:   90687694  USEFUL:    2428873  USELESS:      86245
cpu0_L1D AVERAGE MISS LATENCY: 793.023 cycles
cpu0_L2C TOTAL     ACCESS:  113019439  HIT:   67412296  MISS:   45607143
cpu0_L2C LOAD      ACCESS:    6651794  HIT:       4170  MISS:    6647624
cpu0_L2C RFO       ACCESS:   50411252  HIT:   14391480  MISS:   36019772
cpu0_L2C PREFETCH  ACCESS:    5458276  HIT:    2531238  MISS:    2927038
cpu0_L2C WRITEBACK ACCESS:   50412631  HIT:   50401704  MISS:      10927
cpu0_L2C TRANSLATION ACCESS:      85486  HIT:      83704  MISS:       1782
cpu0_L2C PREFETCH  REQUESTED:    3452233  ISSUED:    3184258  USEFUL:     368728  USELESS:      52855
cpu0_L2C AVERAGE MISS LATENCY: 1038.74 cycles
LLC TOTAL     ACCESS:   81687972  HIT:   43967762  MISS:   37720210
LLC LOAD      ACCESS:    6647624  HIT:       5095  MISS:    6642529
LLC RFO       ACCESS:   36000727  HIT:    9002431  MISS:   26998296
LLC PREFETCH  ACCESS:    3007569  HIT:      68952  MISS:    2938617
LLC WRITEBACK ACCESS:   36030270  HIT:   34890317  MISS:    1139953
LLC TRANSLATION ACCESS:       1782  HIT:        967  MISS:        815
LLC PREFETCH  REQUESTED:          0  ISSUED:          0  USEFUL:          0  USELESS:          0
LLC AVERAGE MISS LATENCY: 1226.76 cycles

DRAM Statistics
 CHANNEL 0
 RQ ROW_BUFFER_HIT:     387728  ROW_BUFFER_MISS:   36192512
 DBUS AVG_CONGESTED_CYCLE:    3.99886
 WQ ROW_BUFFER_HIT:     147629  ROW_BUFFER_MISS:   26852610  FULL:          0


CPU 0 Branch Prediction Accuracy: 98.1434% MPKI: 0.27779 Average ROB Occupancy at Mispredict: 124.831
Branch type MPKI
BRANCH_DIRECT_JUMP: 3e-06
BRANCH_INDIRECT: 0
BRANCH_CONDITIONAL: 0.277783
BRANCH_DIRECT_CALL: 2e-06
BRANCH_INDIRECT_CALL: 0
BRANCH_RETURN: 2e-06

