
*** ChampSim Multicore Out-of-Order Simulator ***

Warmup Instructions: 1000000
Simulation Instructions: 1000000000
Number of CPUs: 1
Off-chip DRAM Size: 4 GiB Channels: 1 Width: 64-bit Data Rate: 3200 MT/s

VirtualMemory physical capacity: 8588881920 num_ppages: 2096895
VirtualMemory page size: 4096 log2_page_size: 12

CPU 0 runs tracer/pin/traces/spec2k6/447.dealII-3B.champsimtrace.xz
Basic BTB sets: 1024 ways: 8 indirect buffer size: 4096 RAS size: 64
cpu0_L1D next line prefetcher
cpu0_L2C IP-based stride prefetcher
WARNING: The extended signature CACHE::prefetch_line(ip, base_addr, pf_addr, fill_this_level, prefetch_metadata) is deprecated.
WARNING: Use CACHE::prefetch_line(pf_addr, fill_this_level, prefetch_metadata) instead.

Warmup complete CPU 0 instructions: 1000003 cycles: 330343 (Simulation time: 0 hr 0 min 3 sec) 

Heartbeat CPU 0 instructions: 10000002 cycles: 9187555 heartbeat IPC: 1.08843 cumulative IPC: 1.01612 (Simulation time: 0 hr 0 min 42 sec) 
Heartbeat CPU 0 instructions: 20000000 cycles: 18964386 heartbeat IPC: 1.02283 cumulative IPC: 1.01964 (Simulation time: 0 hr 1 min 25 sec) 
Heartbeat CPU 0 instructions: 30000000 cycles: 27698005 heartbeat IPC: 1.145 cumulative IPC: 1.05964 (Simulation time: 0 hr 2 min 7 sec) 
Heartbeat CPU 0 instructions: 40000003 cycles: 34682953 heartbeat IPC: 1.43165 cumulative IPC: 1.13528 (Simulation time: 0 hr 2 min 47 sec) 
Heartbeat CPU 0 instructions: 50000001 cycles: 44549232 heartbeat IPC: 1.01355 cumulative IPC: 1.10812 (Simulation time: 0 hr 3 min 30 sec) 
Caught signal: 2
nstructions: 60000004 cycles: 54317370 heartbeat IPC: 1.02374 cumulative IPC: 1.09286 (Simulation time: 0 hr 4 min 12 sec) 
Heartbeat CPU 0 instructions: 70000002 cycles: 63148078 heartbeat IPC: 1.13241 cumulative IPC: 1.09842 (Simulation time: 0 hr 4 min 53 sec) 
Heartbeat CPU 0 instructions: 80000001 cycles: 73175435 heartbeat IPC: 0.997272 cumulative IPC: 1.08449 (Simulation time: 0 hr 5 min 36 sec) 
Heartbeat CPU 0 instructions: 90000003 cycles: 82356518 heartbeat IPC: 1.0892 cumulative IPC: 1.08502 (Simulation time: 0 hr 6 min 19 sec) 
Heartbeat CPU 0 instructions: 100000002 cycles: 90049446 heartbeat IPC: 1.2999 cumulative IPC: 1.10344 (Simulation time: 0 hr 6 min 52 sec) 
Heartbeat CPU 0 instructions: 110000001 cycles: 93067747 heartbeat IPC: 3.31312 cumulative IPC: 1.17536 (Simulation time: 0 hr 7 min 20 sec) 
Heartbeat CPU 0 instructions: 120000000 cycles: 96299315 heartbeat IPC: 3.09447 cumulative IPC: 1.23998 (Simulation time: 0 hr 7 min 48 sec) 
Heartbeat CPU 0 instructions: 130000004 cycles: 102673376 heartbeat IPC: 1.56886 cumulative IPC: 1.26047 (Simulation time: 0 hr 8 min 18 sec) 
Heartbeat CPU 0 instructions: 140000003 cycles: 105707402 heartbeat IPC: 3.29595 cumulative IPC: 1.31907 (Simulation time: 0 hr 8 min 46 sec) 
Heartbeat CPU 0 instructions: 150000000 cycles: 110509501 heartbeat IPC: 2.08242 cumulative IPC: 1.35234 (Simulation time: 0 hr 9 min 15 sec) 
Heartbeat CPU 0 instructions: 160000001 cycles: 115313215 heartbeat IPC: 2.08172 cumulative IPC: 1.38281 (Simulation time: 0 hr 9 min 44 sec) 
Heartbeat CPU 0 instructions: 170000000 cycles: 118324667 heartbeat IPC: 3.32066 cumulative IPC: 1.43227 (Simulation time: 0 hr 10 min 12 sec) 
Heartbeat CPU 0 instructions: 180000004 cycles: 124686235 heartbeat IPC: 1.57194 cumulative IPC: 1.43942 (Simulation time: 0 hr 10 min 42 sec) 
Heartbeat CPU 0 instructions: 190000003 cycles: 127929760 heartbeat IPC: 3.08307 cumulative IPC: 1.4812 (Simulation time: 0 hr 11 min 10 sec) 
Heartbeat CPU 0 instructions: 200000002 cycles: 130936202 heartbeat IPC: 3.32619 cumulative IPC: 1.52367 (Simulation time: 0 hr 11 min 37 sec) 
Heartbeat CPU 0 instructions: 210000000 cycles: 137508611 heartbeat IPC: 1.52151 cumulative IPC: 1.52356 (Simulation time: 0 hr 12 min 8 sec) 
Heartbeat CPU 0 instructions: 220000000 cycles: 140531407 heartbeat IPC: 3.3082 cumulative IPC: 1.56204 (Simulation time: 0 hr 12 min 35 sec) 
Heartbeat CPU 0 instructions: 230000000 cycles: 144847407 heartbeat IPC: 2.31696 cumulative IPC: 1.58459 (Simulation time: 0 hr 13 min 4 sec) 
Heartbeat CPU 0 instructions: 240000003 cycles: 150135136 heartbeat IPC: 1.89117 cumulative IPC: 1.59541 (Simulation time: 0 hr 13 min 34 sec) 
Heartbeat CPU 0 instructions: 250000002 cycles: 153165355 heartbeat IPC: 3.30009 cumulative IPC: 1.62921 (Simulation time: 0 hr 14 min 1 sec) 
Heartbeat CPU 0 instructions: 260000001 cycles: 159058728 heartbeat IPC: 1.69682 cumulative IPC: 1.63172 (Simulation time: 0 hr 14 min 31 sec) 
Heartbeat CPU 0 instructions: 270000001 cycles: 162770062 heartbeat IPC: 2.69445 cumulative IPC: 1.656 (Simulation time: 0 hr 14 min 59 sec) 
Heartbeat CPU 0 instructions: 280000000 cycles: 165776128 heartbeat IPC: 3.32661 cumulative IPC: 1.68635 (Simulation time: 0 hr 15 min 27 sec) 
Heartbeat CPU 0 instructions: 290000004 cycles: 172353927 heartbeat IPC: 1.52027 cumulative IPC: 1.68 (Simulation time: 0 hr 15 min 58 sec) 
Heartbeat CPU 0 instructions: 300000003 cycles: 175376266 heartbeat IPC: 3.3087 cumulative IPC: 1.70812 (Simulation time: 0 hr 16 min 25 sec) 
Heartbeat CPU 0 instructions: 310000001 cycles: 179262015 heartbeat IPC: 2.57351 cumulative IPC: 1.72692 (Simulation time: 0 hr 16 min 54 sec) 
Heartbeat CPU 0 instructions: 320000002 cycles: 185522107 heartbeat IPC: 1.59742 cumulative IPC: 1.72254 (Simulation time: 0 hr 17 min 29 sec) 
Heartbeat CPU 0 instructions: 330000002 cycles: 189150260 heartbeat IPC: 2.75622 cumulative IPC: 1.7424 (Simulation time: 0 hr 18 min 6 sec) 
Heartbeat CPU 0 instructions: 340000002 cycles: 192784357 heartbeat IPC: 2.75172 cumulative IPC: 1.76146 (Simulation time: 0 hr 18 min 41 sec) 
Heartbeat CPU 0 instructions: 350000001 cycles: 203419014 heartbeat IPC: 0.940322 cumulative IPC: 1.71846 (Simulation time: 0 hr 19 min 24 sec) 
Heartbeat CPU 0 instructions: 360000002 cycles: 214388433 heartbeat IPC: 0.911625 cumulative IPC: 1.67711 (Simulation time: 0 hr 20 min 8 sec) 
Heartbeat CPU 0 instructions: 370000001 cycles: 225123123 heartbeat IPC: 0.931559 cumulative IPC: 1.64151 (Simulation time: 0 hr 20 min 51 sec) 
Heartbeat CPU 0 instructions: 380000002 cycles: 236052729 heartbeat IPC: 0.914946 cumulative IPC: 1.60782 (Simulation time: 0 hr 21 min 34 sec) 
Heartbeat CPU 0 instructions: 390000003 cycles: 246917523 heartbeat IPC: 0.920404 cumulative IPC: 1.57754 (Simulation time: 0 hr 22 min 18 sec) 
Heartbeat CPU 0 instructions: 400000000 cycles: 257850053 heartbeat IPC: 0.914701 cumulative IPC: 1.5494 (Simulation time: 0 hr 23 min 1 sec) 
Heartbeat CPU 0 instructions: 410000002 cycles: 268442537 heartbeat IPC: 0.944066 cumulative IPC: 1.52548 (Simulation time: 0 hr 23 min 42 sec) 
Heartbeat CPU 0 instructions: 420000004 cycles: 273509819 heartbeat IPC: 1.97344 cumulative IPC: 1.53379 (Simulation time: 0 hr 24 min 10 sec) 
Heartbeat CPU 0 instructions: 430000001 cycles: 283611387 heartbeat IPC: 0.989945 cumulative IPC: 1.5144 (Simulation time: 0 hr 24 min 47 sec) 
Heartbeat CPU 0 instructions: 440000000 cycles: 293945404 heartbeat IPC: 0.967678 cumulative IPC: 1.49515 (Simulation time: 0 hr 25 min 25 sec) 
Heartbeat CPU 0 instructions: 450000001 cycles: 304189865 heartbeat IPC: 0.976137 cumulative IPC: 1.47766 (Simulation time: 0 hr 26 min 3 sec) 
Heartbeat CPU 0 instructions: 460000001 cycles: 315349849 heartbeat IPC: 0.896059 cumulative IPC: 1.45705 (Simulation time: 0 hr 26 min 42 sec) 
Heartbeat CPU 0 instructions: 470000001 cycles: 330773205 heartbeat IPC: 0.648367 cumulative IPC: 1.41931 (Simulation time: 0 hr 27 min 20 sec) 
Heartbeat CPU 0 instructions: 480000001 cycles: 346981081 heartbeat IPC: 0.616984 cumulative IPC: 1.38179 (Simulation time: 0 hr 27 min 58 sec) 
Heartbeat CPU 0 instructions: 490000000 cycles: 362460685 heartbeat IPC: 0.646011 cumulative IPC: 1.35034 (Simulation time: 0 hr 28 min 35 sec) 
Heartbeat CPU 0 instructions: 500000000 cycles: 377707278 heartbeat IPC: 0.655884 cumulative IPC: 1.32229 (Simulation time: 0 hr 29 min 12 sec) 
Heartbeat CPU 0 instructions: 510000002 cycles: 393002254 heartbeat IPC: 0.65381 cumulative IPC: 1.29625 (Simulation time: 0 hr 29 min 48 sec) 
Heartbeat CPU 0 instructions: 520000000 cycles: 408253379 heartbeat IPC: 0.655689 cumulative IPC: 1.2723 (Simulation time: 0 hr 30 min 25 sec) 
Heartbeat CPU 0 instructions: 530000000 cycles: 423490184 heartbeat IPC: 0.656306 cumulative IPC: 1.25012 (Simulation time: 0 hr 31 min 2 sec) 
Heartbeat CPU 0 instructions: 540000003 cycles: 438516797 heartbeat IPC: 0.665486 cumulative IPC: 1.23007 (Simulation time: 0 hr 31 min 39 sec) 
Heartbeat CPU 0 instructions: 550000001 cycles: 453929742 heartbeat IPC: 0.648805 cumulative IPC: 1.21032 (Simulation time: 0 hr 32 min 17 sec) 
Heartbeat CPU 0 instructions: 560000000 cycles: 469222130 heartbeat IPC: 0.65392 cumulative IPC: 1.19217 (Simulation time: 0 hr 32 min 54 sec) 
Heartbeat CPU 0 instructions: 570000002 cycles: 484205588 heartbeat IPC: 0.667403 cumulative IPC: 1.17592 (Simulation time: 0 hr 33 min 31 sec) 
Heartbeat CPU 0 instructions: 580000001 cycles: 499352027 heartbeat IPC: 0.660221 cumulative IPC: 1.16027 (Simulation time: 0 hr 34 min 8 sec) 
Heartbeat CPU 0 instructions: 590000000 cycles: 514367057 heartbeat IPC: 0.665999 cumulative IPC: 1.14583 (Simulation time: 0 hr 34 min 45 sec) 
Heartbeat CPU 0 instructions: 600000000 cycles: 529115878 heartbeat IPC: 0.67802 cumulative IPC: 1.13278 (Simulation time: 0 hr 35 min 23 sec) 
Heartbeat CPU 0 instructions: 610000002 cycles: 544191820 heartbeat IPC: 0.663309 cumulative IPC: 1.11977 (Simulation time: 0 hr 36 min 0 sec) 
Heartbeat CPU 0 instructions: 620000003 cycles: 559396732 heartbeat IPC: 0.657682 cumulative IPC: 1.1072 (Simulation time: 0 hr 36 min 39 sec) 
Heartbeat CPU 0 instructions: 630000000 cycles: 574516315 heartbeat IPC: 0.661394 cumulative IPC: 1.09546 (Simulation time: 0 hr 37 min 19 sec) 
Heartbeat CPU 0 instructions: 640000000 cycles: 589506407 heartbeat IPC: 0.667107 cumulative IPC: 1.08457 (Simulation time: 0 hr 38 min 0 sec) 
Heartbeat CPU 0 instructions: 650000000 cycles: 604735127 heartbeat IPC: 0.656654 cumulative IPC: 1.07378 (Simulation time: 0 hr 38 min 40 sec) 
Heartbeat CPU 0 instructions: 660000002 cycles: 619873167 heartbeat IPC: 0.660588 cumulative IPC: 1.06369 (Simulation time: 0 hr 39 min 21 sec) 
Heartbeat CPU 0 instructions: 670000001 cycles: 634958740 heartbeat IPC: 0.662885 cumulative IPC: 1.05416 (Simulation time: 0 hr 40 min 4 sec) 
Heartbeat CPU 0 instructions: 680000002 cycles: 650010529 heartbeat IPC: 0.664373 cumulative IPC: 1.04513 (Simulation time: 0 hr 40 min 48 sec) 
Heartbeat CPU 0 instructions: 690000000 cycles: 665171130 heartbeat IPC: 0.659604 cumulative IPC: 1.03634 (Simulation time: 0 hr 41 min 31 sec) 
Heartbeat CPU 0 instructions: 700000001 cycles: 680507052 heartbeat IPC: 0.652064 cumulative IPC: 1.02767 (Simulation time: 0 hr 42 min 15 sec) 
Heartbeat CPU 0 instructions: 710000002 cycles: 696060692 heartbeat IPC: 0.642936 cumulative IPC: 1.01907 (Simulation time: 0 hr 42 min 58 sec) 
Heartbeat CPU 0 instructions: 720000002 cycles: 711332959 heartbeat IPC: 0.654782 cumulative IPC: 1.01125 (Simulation time: 0 hr 43 min 42 sec) 
Heartbeat CPU 0 instructions: 730000000 cycles: 726402045 heartbeat IPC: 0.66361 cumulative IPC: 1.00403 (Simulation time: 0 hr 44 min 28 sec) 
Heartbeat CPU 0 instructions: 740000002 cycles: 741530686 heartbeat IPC: 0.660998 cumulative IPC: 0.997031 (Simulation time: 0 hr 45 min 10 sec) 
Heartbeat CPU 0 instructions: 750000000 cycles: 756842832 heartbeat IPC: 0.653076 cumulative IPC: 0.99007 (Simulation time: 0 hr 45 min 55 sec) 
Heartbeat CPU 0 instructions: 760000000 cycles: 772252912 heartbeat IPC: 0.648926 cumulative IPC: 0.983259 (Simulation time: 0 hr 46 min 40 sec) 
Heartbeat CPU 0 instructions: 770000000 cycles: 787483061 heartbeat IPC: 0.656592 cumulative IPC: 0.976939 (Simulation time: 0 hr 47 min 27 sec) 
Heartbeat CPU 0 instructions: 780000003 cycles: 833895605 heartbeat IPC: 0.215459 cumulative IPC: 0.93454 (Simulation time: 0 hr 48 min 58 sec) 
Heartbeat CPU 0 instructions: 790000004 cycles: 844679968 heartbeat IPC: 0.927269 cumulative IPC: 0.934447 (Simulation time: 0 hr 49 min 49 sec) 
Heartbeat CPU 0 instructions: 800000003 cycles: 867599153 heartbeat IPC: 0.436316 cumulative IPC: 0.921283 (Simulation time: 0 hr 51 min 20 sec) 
Heartbeat CPU 0 instructions: 810000000 cycles: 894229569 heartbeat IPC: 0.37551 cumulative IPC: 0.905024 (Simulation time: 0 hr 52 min 56 sec) 
Heartbeat CPU 0 instructions: 820000004 cycles: 899610796 heartbeat IPC: 1.85831 cumulative IPC: 0.910728 (Simulation time: 0 hr 53 min 35 sec) 
Heartbeat CPU 0 instructions: 830000003 cycles: 902584933 heartbeat IPC: 3.36232 cumulative IPC: 0.918809 (Simulation time: 0 hr 54 min 13 sec) 
Heartbeat CPU 0 instructions: 840000003 cycles: 908279846 heartbeat IPC: 1.75595 cumulative IPC: 0.92406 (Simulation time: 0 hr 54 min 53 sec) 
Heartbeat CPU 0 instructions: 850000001 cycles: 912089196 heartbeat IPC: 2.62512 cumulative IPC: 0.931167 (Simulation time: 0 hr 55 min 32 sec) 
Heartbeat CPU 0 instructions: 860000000 cycles: 915071139 heartbeat IPC: 3.35352 cumulative IPC: 0.939064 (Simulation time: 0 hr 56 min 9 sec) 
Heartbeat CPU 0 instructions: 870000000 cycles: 921616285 heartbeat IPC: 1.52785 cumulative IPC: 0.943247 (Simulation time: 0 hr 56 min 50 sec) 
Heartbeat CPU 0 instructions: 880000004 cycles: 924573313 heartbeat IPC: 3.38178 cumulative IPC: 0.951049 (Simulation time: 0 hr 57 min 28 sec) 
Heartbeat CPU 0 instructions: 890000001 cycles: 928219799 heartbeat IPC: 2.74237 cumulative IPC: 0.958088 (Simulation time: 0 hr 58 min 7 sec) 
Heartbeat CPU 0 instructions: 900000002 cycles: 934087834 heartbeat IPC: 1.70415 cumulative IPC: 0.962777 (Simulation time: 0 hr 58 min 47 sec) 
Heartbeat CPU 0 instructions: 910000000 cycles: 937090494 heartbeat IPC: 3.33038 cumulative IPC: 0.970366 (Simulation time: 0 hr 59 min 26 sec) 
Heartbeat CPU 0 instructions: 920000000 cycles: 942302229 heartbeat IPC: 1.91875 cumulative IPC: 0.975613 (Simulation time: 1 hr 0 min 6 sec) 
Heartbeat CPU 0 instructions: 930000004 cycles: 946592974 heartbeat IPC: 2.3306 cumulative IPC: 0.981757 (Simulation time: 1 hr 0 min 45 sec) 
Heartbeat CPU 0 instructions: 940000002 cycles: 949585347 heartbeat IPC: 3.34183 cumulative IPC: 0.989197 (Simulation time: 1 hr 1 min 23 sec) 
Heartbeat CPU 0 instructions: 950000002 cycles: 956118479 heartbeat IPC: 1.53066 cumulative IPC: 0.992898 (Simulation time: 1 hr 2 min 4 sec) 
Heartbeat CPU 0 instructions: 960000000 cycles: 959076803 heartbeat IPC: 3.38029 cumulative IPC: 1.00026 (Simulation time: 1 hr 2 min 42 sec) 
Heartbeat CPU 0 instructions: 970000004 cycles: 962255355 heartbeat IPC: 3.14609 cumulative IPC: 1.00735 (Simulation time: 1 hr 3 min 20 sec) 
Heartbeat CPU 0 instructions: 980000000 cycles: 968591496 heartbeat IPC: 1.57825 cumulative IPC: 1.01109 (Simulation time: 1 hr 4 min 3 sec) 
Heartbeat CPU 0 instructions: 990000003 cycles: 971560504 heartbeat IPC: 3.36813 cumulative IPC: 1.0183 (Simulation time: 1 hr 4 min 41 sec) 
Heartbeat CPU 0 instructions: 1000000003 cycles: 976297180 heartbeat IPC: 2.11119 cumulative IPC: 1.0236 (Simulation time: 1 hr 5 min 23 sec) 
Finished CPU 0 instructions: 1000000004 cycles: 976783030 cumulative IPC: 1.02377 (Simulation time: 1 hr 5 min 27 sec) 

ChampSim completed all CPUs

Region of Interest Statistics

CPU 0 cumulative IPC: 1.02377 instructions: 1000000004 cycles: 976783030
cpu0_DTLB TOTAL     ACCESS:  222841504  HIT:  220911334  MISS:    1930170
cpu0_DTLB LOAD      ACCESS:  184691897  HIT:  182977688  MISS:    1714209
cpu0_DTLB RFO       ACCESS:   38149607  HIT:   37933646  MISS:     215961
cpu0_DTLB PREFETCH  ACCESS:          0  HIT:          0  MISS:          0
cpu0_DTLB WRITEBACK ACCESS:          0  HIT:          0  MISS:          0
cpu0_DTLB TRANSLATION ACCESS:          0  HIT:          0  MISS:          0
cpu0_DTLB PREFETCH  REQUESTED:          0  ISSUED:          0  USEFUL:          0  USELESS:          0
cpu0_DTLB AVERAGE MISS LATENCY: 9.24587 cycles
cpu0_ITLB TOTAL     ACCESS:   93617932  HIT:   93615491  MISS:       2441
cpu0_ITLB LOAD      ACCESS:   93617932  HIT:   93615491  MISS:       2441
cpu0_ITLB RFO       ACCESS:          0  HIT:          0  MISS:          0
cpu0_ITLB PREFETCH  ACCESS:          0  HIT:          0  MISS:          0
cpu0_ITLB WRITEBACK ACCESS:          0  HIT:          0  MISS:          0
cpu0_ITLB TRANSLATION ACCESS:          0  HIT:          0  MISS:          0
cpu0_ITLB PREFETCH  REQUESTED:          0  ISSUED:          0  USEFUL:          0  USELESS:          0
cpu0_ITLB AVERAGE MISS LATENCY: 21.8636 cycles
cpu0_L1I TOTAL     ACCESS:   25600093  HIT:   25594670  MISS:       5423
cpu0_L1I LOAD      ACCESS:   25600093  HIT:   25594670  MISS:       5423
cpu0_L1I RFO       ACCESS:          0  HIT:          0  MISS:          0
cpu0_L1I PREFETCH  ACCESS:          0  HIT:          0  MISS:          0
cpu0_L1I WRITEBACK ACCESS:          0  HIT:          0  MISS:          0
cpu0_L1I TRANSLATION ACCESS:          0  HIT:          0  MISS:          0
cpu0_L1I PREFETCH  REQUESTED:          0  ISSUED:          0  USEFUL:          0  USELESS:          0
cpu0_L1I AVERAGE MISS LATENCY: 204.986 cycles
cpu0_STLB TOTAL     ACCESS:    1932611  HIT:    1927338  MISS:       5273
cpu0_STLB LOAD      ACCESS:    1716650  HIT:    1713592  MISS:       3058
cpu0_STLB RFO       ACCESS:     215961  HIT:     213746  MISS:       2215
cpu0_STLB PREFETCH  ACCESS:          0  HIT:          0  MISS:          0
cpu0_STLB WRITEBACK ACCESS:          0  HIT:          0  MISS:          0
cpu0_STLB TRANSLATION ACCESS:          0  HIT:          0  MISS:          0
cpu0_STLB PREFETCH  REQUESTED:          0  ISSUED:          0  USEFUL:          0  USELESS:          0
cpu0_STLB AVERAGE MISS LATENCY: 94.8731 cycles
cpu0_L1D TOTAL     ACCESS:  472261823  HIT:  446356195  MISS:   25905628
cpu0_L1D LOAD      ACCESS:  207016400  HIT:  195272735  MISS:   11743665
cpu0_L1D RFO       ACCESS:   60399957  HIT:   59981036  MISS:     418921
cpu0_L1D PREFETCH  ACCESS:  204840198  HIT:  191097687  MISS:   13742511
cpu0_L1D WRITEBACK ACCESS:          0  HIT:          0  MISS:          0
cpu0_L1D TRANSLATION ACCESS:       5268  HIT:       4737  MISS:        531
cpu0_L1D PREFETCH  REQUESTED:  207155865  ISSUED:  205873007  USEFUL:    8546908  USELESS:    5332889
cpu0_L1D AVERAGE MISS LATENCY: 21.3688 cycles
cpu0_L2C TOTAL     ACCESS:   27727081  HIT:   26583120  MISS:    1143961
cpu0_L2C LOAD      ACCESS:   11659088  HIT:   11368857  MISS:     290231
cpu0_L2C RFO       ACCESS:     367854  HIT:     157012  MISS:     210842
cpu0_L2C PREFETCH  ACCESS:   14890753  HIT:   14248863  MISS:     641890
cpu0_L2C WRITEBACK ACCESS:     808855  HIT:     807926  MISS:        929
cpu0_L2C TRANSLATION ACCESS:        531  HIT:        462  MISS:         69
cpu0_L2C PREFETCH  REQUESTED:    1042367  ISSUED:    1029205  USEFUL:      27759  USELESS:      26206
cpu0_L2C AVERAGE MISS LATENCY: 243.24 cycles
LLC TOTAL     ACCESS:    1704026  HIT:     977525  MISS:     726501
LLC LOAD      ACCESS:     290229  HIT:      83607  MISS:     206622
LLC RFO       ACCESS:     210841  HIT:     125538  MISS:      85303
LLC PREFETCH  ACCESS:     642032  HIT:     245141  MISS:     396891
LLC WRITEBACK ACCESS:     560855  HIT:     523186  MISS:      37669
LLC TRANSLATION ACCESS:         69  HIT:         53  MISS:         16
LLC PREFETCH  REQUESTED:          0  ISSUED:          0  USEFUL:          0  USELESS:          0
LLC AVERAGE MISS LATENCY: 340.827 cycles

DRAM Statistics
 CHANNEL 0
 RQ ROW_BUFFER_HIT:     112063  ROW_BUFFER_MISS:     576622
 DBUS AVG_CONGESTED_CYCLE:    3.88324
 WQ ROW_BUFFER_HIT:      34831  ROW_BUFFER_MISS:     288505  FULL:        318


CPU 0 Branch Prediction Accuracy: 88.5577% MPKI: 20.1191 Average ROB Occupancy at Mispredict: 18.8618
Branch type MPKI
BRANCH_DIRECT_JUMP: 0.000451
BRANCH_INDIRECT: 0.007247
BRANCH_CONDITIONAL: 20.1095
BRANCH_DIRECT_CALL: 0.0009
BRANCH_INDIRECT_CALL: 0.000191
BRANCH_RETURN: 0.00082

