
*** ChampSim Multicore Out-of-Order Simulator ***

Warmup Instructions: 1000000
Simulation Instructions: 1000000000
Number of CPUs: 1
Off-chip DRAM Size: 4 GiB Channels: 1 Width: 64-bit Data Rate: 3200 MT/s

VirtualMemory physical capacity: 8588881920 num_ppages: 2096895
VirtualMemory page size: 4096 log2_page_size: 12

CPU 0 runs tracer/pin/traces/spec2k6/459.GemsFDTD-1491B.champsimtrace.xz
Basic BTB sets: 1024 ways: 8 indirect buffer size: 4096 RAS size: 64
cpu0_L1D next line prefetcher
cpu0_L2C IP-based stride prefetcher
WARNING: The extended signature CACHE::prefetch_line(ip, base_addr, pf_addr, fill_this_level, prefetch_metadata) is deprecated.
WARNING: Use CACHE::prefetch_line(pf_addr, fill_this_level, prefetch_metadata) instead.

Warmup complete CPU 0 instructions: 1000004 cycles: 310305 (Simulation time: 0 hr 0 min 3 sec) 

Heartbeat CPU 0 instructions: 10000001 cycles: 49010205 heartbeat IPC: 0.204039 cumulative IPC: 0.184805 (Simulation time: 0 hr 3 min 35 sec) 
Heartbeat CPU 0 instructions: 20000000 cycles: 104667810 heartbeat IPC: 0.17967 cumulative IPC: 0.182066 (Simulation time: 0 hr 8 min 0 sec) 
Heartbeat CPU 0 instructions: 30000000 cycles: 160428080 heartbeat IPC: 0.179339 cumulative IPC: 0.181117 (Simulation time: 0 hr 12 min 49 sec) 
Heartbeat CPU 0 instructions: 40000003 cycles: 216090289 heartbeat IPC: 0.179655 cumulative IPC: 0.18074 (Simulation time: 0 hr 17 min 33 sec) 
Heartbeat CPU 0 instructions: 50000002 cycles: 271721759 heartbeat IPC: 0.179754 cumulative IPC: 0.180538 (Simulation time: 0 hr 22 min 39 sec) 
Heartbeat CPU 0 instructions: 60000001 cycles: 327324915 heartbeat IPC: 0.179846 cumulative IPC: 0.18042 (Simulation time: 0 hr 27 min 51 sec) 
Heartbeat CPU 0 instructions: 70000001 cycles: 383001047 heartbeat IPC: 0.17961 cumulative IPC: 0.180302 (Simulation time: 0 hr 33 min 26 sec) 
Heartbeat CPU 0 instructions: 80000003 cycles: 438683502 heartbeat IPC: 0.17959 cumulative IPC: 0.180212 (Simulation time: 0 hr 39 min 6 sec) 
Heartbeat CPU 0 instructions: 90000002 cycles: 494471941 heartbeat IPC: 0.179249 cumulative IPC: 0.180103 (Simulation time: 0 hr 44 min 42 sec) 
Heartbeat CPU 0 instructions: 100000002 cycles: 550235307 heartbeat IPC: 0.179329 cumulative IPC: 0.180025 (Simulation time: 0 hr 50 min 23 sec) 
Heartbeat CPU 0 instructions: 110000002 cycles: 606015089 heartbeat IPC: 0.179276 cumulative IPC: 0.179956 (Simulation time: 0 hr 55 min 59 sec) 
Heartbeat CPU 0 instructions: 120000004 cycles: 661697514 heartbeat IPC: 0.17959 cumulative IPC: 0.179925 (Simulation time: 1 hr 1 min 21 sec) 
Heartbeat CPU 0 instructions: 130000003 cycles: 717457115 heartbeat IPC: 0.179341 cumulative IPC: 0.179879 (Simulation time: 1 hr 6 min 44 sec) 
Heartbeat CPU 0 instructions: 140000002 cycles: 773087473 heartbeat IPC: 0.179758 cumulative IPC: 0.179871 (Simulation time: 1 hr 12 min 11 sec) 
Heartbeat CPU 0 instructions: 150000002 cycles: 828582607 heartbeat IPC: 0.180196 cumulative IPC: 0.179893 (Simulation time: 1 hr 17 min 19 sec) 
Heartbeat CPU 0 instructions: 160000001 cycles: 884212980 heartbeat IPC: 0.179758 cumulative IPC: 0.179884 (Simulation time: 1 hr 22 min 26 sec) 
Heartbeat CPU 0 instructions: 170000001 cycles: 939800214 heartbeat IPC: 0.179897 cumulative IPC: 0.179885 (Simulation time: 1 hr 27 min 24 sec) 
Heartbeat CPU 0 instructions: 180000002 cycles: 995516249 heartbeat IPC: 0.179482 cumulative IPC: 0.179862 (Simulation time: 1 hr 32 min 30 sec) 
Heartbeat CPU 0 instructions: 190000000 cycles: 1051233992 heartbeat IPC: 0.179476 cumulative IPC: 0.179842 (Simulation time: 1 hr 37 min 58 sec) 
Heartbeat CPU 0 instructions: 200000004 cycles: 1107004941 heartbeat IPC: 0.179305 cumulative IPC: 0.179815 (Simulation time: 1 hr 43 min 36 sec) 
Heartbeat CPU 0 instructions: 210000004 cycles: 1162643191 heartbeat IPC: 0.179732 cumulative IPC: 0.179811 (Simulation time: 1 hr 48 min 53 sec) 
Heartbeat CPU 0 instructions: 220000000 cycles: 1218319296 heartbeat IPC: 0.17961 cumulative IPC: 0.179802 (Simulation time: 1 hr 54 min 5 sec) 
Heartbeat CPU 0 instructions: 230000004 cycles: 1274035985 heartbeat IPC: 0.17948 cumulative IPC: 0.179788 (Simulation time: 1 hr 59 min 30 sec) 
Heartbeat CPU 0 instructions: 240000003 cycles: 1329772540 heartbeat IPC: 0.179415 cumulative IPC: 0.179772 (Simulation time: 2 hr 4 min 54 sec) 
Heartbeat CPU 0 instructions: 250000003 cycles: 1385290272 heartbeat IPC: 0.180123 cumulative IPC: 0.179786 (Simulation time: 2 hr 10 min 19 sec) 
Heartbeat CPU 0 instructions: 260000002 cycles: 1440987420 heartbeat IPC: 0.179542 cumulative IPC: 0.179777 (Simulation time: 2 hr 15 min 45 sec) 
Heartbeat CPU 0 instructions: 270000000 cycles: 1496668667 heartbeat IPC: 0.179594 cumulative IPC: 0.17977 (Simulation time: 2 hr 20 min 56 sec) 
Heartbeat CPU 0 instructions: 280000003 cycles: 1552311598 heartbeat IPC: 0.179717 cumulative IPC: 0.179768 (Simulation time: 2 hr 26 min 22 sec) 
Heartbeat CPU 0 instructions: 290000000 cycles: 1607979932 heartbeat IPC: 0.179635 cumulative IPC: 0.179763 (Simulation time: 2 hr 31 min 49 sec) 
Heartbeat CPU 0 instructions: 300000002 cycles: 1658157750 heartbeat IPC: 0.199291 cumulative IPC: 0.180354 (Simulation time: 2 hr 36 min 55 sec) 
Heartbeat CPU 0 instructions: 310000000 cycles: 1682426746 heartbeat IPC: 0.412048 cumulative IPC: 0.183697 (Simulation time: 2 hr 39 min 47 sec) 
Heartbeat CPU 0 instructions: 320000001 cycles: 1706240458 heartbeat IPC: 0.419926 cumulative IPC: 0.186995 (Simulation time: 2 hr 42 min 38 sec) 
Heartbeat CPU 0 instructions: 330000000 cycles: 1730116783 heartbeat IPC: 0.418825 cumulative IPC: 0.190195 (Simulation time: 2 hr 45 min 23 sec) 
Heartbeat CPU 0 instructions: 340000001 cycles: 1753888352 heartbeat IPC: 0.420671 cumulative IPC: 0.193319 (Simulation time: 2 hr 48 min 14 sec) 
Heartbeat CPU 0 instructions: 350000000 cycles: 1777634164 heartbeat IPC: 0.421127 cumulative IPC: 0.196363 (Simulation time: 2 hr 51 min 2 sec) 
Heartbeat CPU 0 instructions: 360000001 cycles: 1801395320 heartbeat IPC: 0.420855 cumulative IPC: 0.199324 (Simulation time: 2 hr 53 min 49 sec) 
Heartbeat CPU 0 instructions: 370000001 cycles: 1825103482 heartbeat IPC: 0.421796 cumulative IPC: 0.202215 (Simulation time: 2 hr 56 min 38 sec) 
Heartbeat CPU 0 instructions: 380000001 cycles: 1848841164 heartbeat IPC: 0.421271 cumulative IPC: 0.205028 (Simulation time: 2 hr 59 min 31 sec) 
Heartbeat CPU 0 instructions: 390000001 cycles: 1872540527 heartbeat IPC: 0.421952 cumulative IPC: 0.207774 (Simulation time: 3 hr 2 min 20 sec) 
Heartbeat CPU 0 instructions: 400000002 cycles: 1896273226 heartbeat IPC: 0.42136 cumulative IPC: 0.210447 (Simulation time: 3 hr 5 min 9 sec) 
Heartbeat CPU 0 instructions: 410000003 cycles: 1920005154 heartbeat IPC: 0.421373 cumulative IPC: 0.213055 (Simulation time: 3 hr 7 min 53 sec) 
Heartbeat CPU 0 instructions: 420000000 cycles: 1943735447 heartbeat IPC: 0.421402 cumulative IPC: 0.215599 (Simulation time: 3 hr 10 min 33 sec) 
Heartbeat CPU 0 instructions: 430000004 cycles: 1978060815 heartbeat IPC: 0.29133 cumulative IPC: 0.216913 (Simulation time: 3 hr 14 min 10 sec) 
Heartbeat CPU 0 instructions: 440000004 cycles: 2104125875 heartbeat IPC: 0.0793241 cumulative IPC: 0.208668 (Simulation time: 3 hr 25 min 22 sec) 
Heartbeat CPU 0 instructions: 450000001 cycles: 2127794866 heartbeat IPC: 0.422494 cumulative IPC: 0.211047 (Simulation time: 3 hr 28 min 0 sec) 
Heartbeat CPU 0 instructions: 460000001 cycles: 2151510065 heartbeat IPC: 0.42167 cumulative IPC: 0.213369 (Simulation time: 3 hr 30 min 28 sec) 
Heartbeat CPU 0 instructions: 470000001 cycles: 2175208774 heartbeat IPC: 0.421964 cumulative IPC: 0.215642 (Simulation time: 3 hr 32 min 57 sec) 
Heartbeat CPU 0 instructions: 480000000 cycles: 2198987638 heartbeat IPC: 0.420541 cumulative IPC: 0.217858 (Simulation time: 3 hr 35 min 32 sec) 
Heartbeat CPU 0 instructions: 490000004 cycles: 2222707966 heartbeat IPC: 0.42158 cumulative IPC: 0.220033 (Simulation time: 3 hr 37 min 55 sec) 
Heartbeat CPU 0 instructions: 500000004 cycles: 2246388631 heartbeat IPC: 0.422285 cumulative IPC: 0.222165 (Simulation time: 3 hr 40 min 20 sec) 
Heartbeat CPU 0 instructions: 510000003 cycles: 2270058738 heartbeat IPC: 0.422474 cumulative IPC: 0.224254 (Simulation time: 3 hr 42 min 36 sec) 
Heartbeat CPU 0 instructions: 520000000 cycles: 2293794146 heartbeat IPC: 0.421311 cumulative IPC: 0.226293 (Simulation time: 3 hr 44 min 58 sec) 
Heartbeat CPU 0 instructions: 530000002 cycles: 2317542412 heartbeat IPC: 0.421083 cumulative IPC: 0.22829 (Simulation time: 3 hr 47 min 13 sec) 
Heartbeat CPU 0 instructions: 540000000 cycles: 2341286483 heartbeat IPC: 0.421158 cumulative IPC: 0.230246 (Simulation time: 3 hr 49 min 39 sec) 
Heartbeat CPU 0 instructions: 550000003 cycles: 2365007890 heartbeat IPC: 0.42156 cumulative IPC: 0.232165 (Simulation time: 3 hr 51 min 52 sec) 
Heartbeat CPU 0 instructions: 560000004 cycles: 2388789193 heartbeat IPC: 0.420498 cumulative IPC: 0.23404 (Simulation time: 3 hr 54 min 13 sec) 
Heartbeat CPU 0 instructions: 570000004 cycles: 2412496534 heartbeat IPC: 0.42181 cumulative IPC: 0.235886 (Simulation time: 3 hr 56 min 23 sec) 
Heartbeat CPU 0 instructions: 580000004 cycles: 2436204556 heartbeat IPC: 0.421798 cumulative IPC: 0.237695 (Simulation time: 3 hr 58 min 32 sec) 
Heartbeat CPU 0 instructions: 590000003 cycles: 2453629216 heartbeat IPC: 0.573899 cumulative IPC: 0.240083 (Simulation time: 4 hr 0 min 30 sec) 
Heartbeat CPU 0 instructions: 600000002 cycles: 2470314660 heartbeat IPC: 0.599325 cumulative IPC: 0.24251 (Simulation time: 4 hr 2 min 13 sec) 
Heartbeat CPU 0 instructions: 610000000 cycles: 2486674778 heartbeat IPC: 0.611242 cumulative IPC: 0.244936 (Simulation time: 4 hr 4 min 3 sec) 
Heartbeat CPU 0 instructions: 620000000 cycles: 2503448238 heartbeat IPC: 0.59618 cumulative IPC: 0.24729 (Simulation time: 4 hr 5 min 56 sec) 
Heartbeat CPU 0 instructions: 630000001 cycles: 2520204903 heartbeat IPC: 0.596777 cumulative IPC: 0.249614 (Simulation time: 4 hr 7 min 38 sec) 
Heartbeat CPU 0 instructions: 640000000 cycles: 2536553227 heartbeat IPC: 0.611683 cumulative IPC: 0.251947 (Simulation time: 4 hr 9 min 30 sec) 
Heartbeat CPU 0 instructions: 650000003 cycles: 2553485562 heartbeat IPC: 0.590586 cumulative IPC: 0.254193 (Simulation time: 4 hr 11 min 21 sec) 
Heartbeat CPU 0 instructions: 660000000 cycles: 2570267991 heartbeat IPC: 0.595861 cumulative IPC: 0.256424 (Simulation time: 4 hr 13 min 13 sec) 
Heartbeat CPU 0 instructions: 670000004 cycles: 2586580134 heartbeat IPC: 0.613041 cumulative IPC: 0.258674 (Simulation time: 4 hr 15 min 9 sec) 
Heartbeat CPU 0 instructions: 680000000 cycles: 2603384540 heartbeat IPC: 0.595082 cumulative IPC: 0.260845 (Simulation time: 4 hr 17 min 1 sec) 
Heartbeat CPU 0 instructions: 690000001 cycles: 2620208444 heartbeat IPC: 0.594392 cumulative IPC: 0.262987 (Simulation time: 4 hr 18 min 41 sec) 
Heartbeat CPU 0 instructions: 700000001 cycles: 2636024789 heartbeat IPC: 0.632257 cumulative IPC: 0.265203 (Simulation time: 4 hr 20 min 25 sec) 
Heartbeat CPU 0 instructions: 710000004 cycles: 2651849001 heartbeat IPC: 0.631943 cumulative IPC: 0.267392 (Simulation time: 4 hr 22 min 5 sec) 
Heartbeat CPU 0 instructions: 720000002 cycles: 2668902305 heartbeat IPC: 0.586397 cumulative IPC: 0.26943 (Simulation time: 4 hr 23 min 56 sec) 
Heartbeat CPU 0 instructions: 730000002 cycles: 2685979030 heartbeat IPC: 0.585592 cumulative IPC: 0.271441 (Simulation time: 4 hr 25 min 43 sec) 
Heartbeat CPU 0 instructions: 740000000 cycles: 2702790339 heartbeat IPC: 0.594838 cumulative IPC: 0.273453 (Simulation time: 4 hr 27 min 20 sec) 
Heartbeat CPU 0 instructions: 750000002 cycles: 2719802771 heartbeat IPC: 0.587806 cumulative IPC: 0.275419 (Simulation time: 4 hr 29 min 10 sec) 
Heartbeat CPU 0 instructions: 760000000 cycles: 2736854587 heartbeat IPC: 0.586448 cumulative IPC: 0.277357 (Simulation time: 4 hr 31 min 4 sec) 
Heartbeat CPU 0 instructions: 770000002 cycles: 2753835876 heartbeat IPC: 0.588884 cumulative IPC: 0.279278 (Simulation time: 4 hr 32 min 37 sec) 
Heartbeat CPU 0 instructions: 780000003 cycles: 2770694594 heartbeat IPC: 0.593165 cumulative IPC: 0.281188 (Simulation time: 4 hr 34 min 17 sec) 
Heartbeat CPU 0 instructions: 790000003 cycles: 2787795725 heartbeat IPC: 0.584757 cumulative IPC: 0.283051 (Simulation time: 4 hr 35 min 53 sec) 
Heartbeat CPU 0 instructions: 800000001 cycles: 2804790349 heartbeat IPC: 0.588421 cumulative IPC: 0.284901 (Simulation time: 4 hr 37 min 29 sec) 
Heartbeat CPU 0 instructions: 810000003 cycles: 2821558870 heartbeat IPC: 0.596356 cumulative IPC: 0.286752 (Simulation time: 4 hr 39 min 7 sec) 
Heartbeat CPU 0 instructions: 820000001 cycles: 2838662278 heartbeat IPC: 0.584679 cumulative IPC: 0.288548 (Simulation time: 4 hr 40 min 39 sec) 
Heartbeat CPU 0 instructions: 830000000 cycles: 2855401487 heartbeat IPC: 0.5974 cumulative IPC: 0.290359 (Simulation time: 4 hr 42 min 9 sec) 
Heartbeat CPU 0 instructions: 840000003 cycles: 2871872649 heartbeat IPC: 0.607122 cumulative IPC: 0.292175 (Simulation time: 4 hr 43 min 44 sec) 
Heartbeat CPU 0 instructions: 850000003 cycles: 2888433585 heartbeat IPC: 0.603831 cumulative IPC: 0.293963 (Simulation time: 4 hr 45 min 15 sec) 
Heartbeat CPU 0 instructions: 860000003 cycles: 2905242749 heartbeat IPC: 0.594914 cumulative IPC: 0.295704 (Simulation time: 4 hr 46 min 46 sec) 
Heartbeat CPU 0 instructions: 870000002 cycles: 2922066182 heartbeat IPC: 0.594409 cumulative IPC: 0.297424 (Simulation time: 4 hr 48 min 22 sec) 
Heartbeat CPU 0 instructions: 880000002 cycles: 2938926446 heartbeat IPC: 0.593111 cumulative IPC: 0.29912 (Simulation time: 4 hr 49 min 59 sec) 
Heartbeat CPU 0 instructions: 890000001 cycles: 2955954582 heartbeat IPC: 0.587263 cumulative IPC: 0.30078 (Simulation time: 4 hr 51 min 33 sec) 
Heartbeat CPU 0 instructions: 900000001 cycles: 2972674757 heartbeat IPC: 0.59808 cumulative IPC: 0.302453 (Simulation time: 4 hr 53 min 4 sec) 
Heartbeat CPU 0 instructions: 910000000 cycles: 2989173257 heartbeat IPC: 0.606116 cumulative IPC: 0.304129 (Simulation time: 4 hr 54 min 32 sec) 
Heartbeat CPU 0 instructions: 920000000 cycles: 3005728395 heartbeat IPC: 0.604042 cumulative IPC: 0.305781 (Simulation time: 4 hr 55 min 59 sec) 
Heartbeat CPU 0 instructions: 930000004 cycles: 3021249999 heartbeat IPC: 0.644264 cumulative IPC: 0.30752 (Simulation time: 4 hr 57 min 17 sec) 
Heartbeat CPU 0 instructions: 940000000 cycles: 3038032411 heartbeat IPC: 0.595862 cumulative IPC: 0.309113 (Simulation time: 4 hr 58 min 44 sec) 
Heartbeat CPU 0 instructions: 950000001 cycles: 3055652911 heartbeat IPC: 0.567521 cumulative IPC: 0.310603 (Simulation time: 5 hr 0 min 13 sec) 
Heartbeat CPU 0 instructions: 960000004 cycles: 3072903139 heartbeat IPC: 0.579703 cumulative IPC: 0.312114 (Simulation time: 5 hr 1 min 41 sec) 
Heartbeat CPU 0 instructions: 970000003 cycles: 3090412289 heartbeat IPC: 0.57113 cumulative IPC: 0.313582 (Simulation time: 5 hr 3 min 10 sec) 
Heartbeat CPU 0 instructions: 980000003 cycles: 3108261128 heartbeat IPC: 0.560261 cumulative IPC: 0.314999 (Simulation time: 5 hr 4 min 41 sec) 
Heartbeat CPU 0 instructions: 990000003 cycles: 3126057621 heartbeat IPC: 0.561908 cumulative IPC: 0.316404 (Simulation time: 5 hr 6 min 11 sec) 
Heartbeat CPU 0 instructions: 1000000002 cycles: 3143672495 heartbeat IPC: 0.567702 cumulative IPC: 0.317813 (Simulation time: 5 hr 7 min 40 sec) 
Finished CPU 0 instructions: 1000000004 cycles: 3145131383 cumulative IPC: 0.317952 (Simulation time: 5 hr 7 min 49 sec) 

ChampSim completed all CPUs

Region of Interest Statistics

CPU 0 cumulative IPC: 0.317952 instructions: 1000000004 cycles: 3145131383
cpu0_DTLB TOTAL     ACCESS:  438800416  HIT:  436099764  MISS:    2700652
cpu0_DTLB LOAD      ACCESS:  393765539  HIT:  391747737  MISS:    2017802
cpu0_DTLB RFO       ACCESS:   45034877  HIT:   44352027  MISS:     682850
cpu0_DTLB PREFETCH  ACCESS:          0  HIT:          0  MISS:          0
cpu0_DTLB WRITEBACK ACCESS:          0  HIT:          0  MISS:          0
cpu0_DTLB TRANSLATION ACCESS:          0  HIT:          0  MISS:          0
cpu0_DTLB PREFETCH  REQUESTED:          0  ISSUED:          0  USEFUL:          0  USELESS:          0
cpu0_DTLB AVERAGE MISS LATENCY: 41.2652 cycles
cpu0_ITLB TOTAL     ACCESS:   11793041  HIT:   11793030  MISS:         11
cpu0_ITLB LOAD      ACCESS:   11793041  HIT:   11793030  MISS:         11
cpu0_ITLB RFO       ACCESS:          0  HIT:          0  MISS:          0
cpu0_ITLB PREFETCH  ACCESS:          0  HIT:          0  MISS:          0
cpu0_ITLB WRITEBACK ACCESS:          0  HIT:          0  MISS:          0
cpu0_ITLB TRANSLATION ACCESS:          0  HIT:          0  MISS:          0
cpu0_ITLB PREFETCH  REQUESTED:          0  ISSUED:          0  USEFUL:          0  USELESS:          0
cpu0_ITLB AVERAGE MISS LATENCY: 578.091 cycles
cpu0_L1I TOTAL     ACCESS:   69367190  HIT:   69366738  MISS:        452
cpu0_L1I LOAD      ACCESS:   69367190  HIT:   69366738  MISS:        452
cpu0_L1I RFO       ACCESS:          0  HIT:          0  MISS:          0
cpu0_L1I PREFETCH  ACCESS:          0  HIT:          0  MISS:          0
cpu0_L1I WRITEBACK ACCESS:          0  HIT:          0  MISS:          0
cpu0_L1I TRANSLATION ACCESS:          0  HIT:          0  MISS:          0
cpu0_L1I PREFETCH  REQUESTED:          0  ISSUED:          0  USEFUL:          0  USELESS:          0
cpu0_L1I AVERAGE MISS LATENCY: 994.692 cycles
cpu0_STLB TOTAL     ACCESS:    2700663  HIT:    2068785  MISS:     631878
cpu0_STLB LOAD      ACCESS:    2017813  HIT:    1385937  MISS:     631876
cpu0_STLB RFO       ACCESS:     682850  HIT:     682848  MISS:          2
cpu0_STLB PREFETCH  ACCESS:          0  HIT:          0  MISS:          0
cpu0_STLB WRITEBACK ACCESS:          0  HIT:          0  MISS:          0
cpu0_STLB TRANSLATION ACCESS:          0  HIT:          0  MISS:          0
cpu0_STLB PREFETCH  REQUESTED:          0  ISSUED:          0  USEFUL:          0  USELESS:          0
cpu0_STLB AVERAGE MISS LATENCY: 137.885 cycles
cpu0_L1D TOTAL     ACCESS:  770717717  HIT:  754318896  MISS:   16398821
cpu0_L1D LOAD      ACCESS:  429564076  HIT:  422068920  MISS:    7495156
cpu0_L1D RFO       ACCESS:   66908424  HIT:   66902810  MISS:       5614
cpu0_L1D PREFETCH  ACCESS:  273614699  HIT:  264840815  MISS:    8773884
cpu0_L1D WRITEBACK ACCESS:          0  HIT:          0  MISS:          0
cpu0_L1D TRANSLATION ACCESS:     630518  HIT:     506351  MISS:     124167
cpu0_L1D PREFETCH  REQUESTED:  437065214  ISSUED:  321563981  USEFUL:   12811524  USELESS:    1043241
cpu0_L1D AVERAGE MISS LATENCY: 815.427 cycles
cpu0_L2C TOTAL     ACCESS:   22439225  HIT:    7431820  MISS:   15007405
cpu0_L2C LOAD      ACCESS:    2410413  HIT:     293036  MISS:    2117377
cpu0_L2C RFO       ACCESS:       2909  HIT:       2872  MISS:         37
cpu0_L2C PREFETCH  ACCESS:   13998569  HIT:    1111906  MISS:   12886663
cpu0_L2C WRITEBACK ACCESS:    5903167  HIT:    5901933  MISS:       1234
cpu0_L2C TRANSLATION ACCESS:     124167  HIT:     122073  MISS:       2094
cpu0_L2C PREFETCH  REQUESTED:     183301  ISSUED:     183300  USEFUL:      24304  USELESS:      38015
cpu0_L2C AVERAGE MISS LATENCY: 1454.7 cycles
LLC TOTAL     ACCESS:   20909016  HIT:    6662824  MISS:   14246192
LLC LOAD      ACCESS:    2117377  HIT:     238417  MISS:    1878960
LLC RFO       ACCESS:         37  HIT:          2  MISS:         35
LLC PREFETCH  ACCESS:   12926028  HIT:     611185  MISS:   12314843
LLC WRITEBACK ACCESS:    5863480  HIT:    5811749  MISS:      51731
LLC TRANSLATION ACCESS:       2094  HIT:       1471  MISS:        623
LLC PREFETCH  REQUESTED:          0  ISSUED:          0  USEFUL:          0  USELESS:          0
LLC AVERAGE MISS LATENCY: 1507.66 cycles

DRAM Statistics
 CHANNEL 0
 RQ ROW_BUFFER_HIT:      56276  ROW_BUFFER_MISS:   14138184
 DBUS AVG_CONGESTED_CYCLE:    3.99738
 WQ ROW_BUFFER_HIT:      21528  ROW_BUFFER_MISS:    5826251  FULL:          0


CPU 0 Branch Prediction Accuracy: 98.1793% MPKI: 0.200776 Average ROB Occupancy at Mispredict: 123.679
Branch type MPKI
BRANCH_DIRECT_JUMP: 1.5e-05
BRANCH_INDIRECT: 0
BRANCH_CONDITIONAL: 0.200759
BRANCH_DIRECT_CALL: 1e-06
BRANCH_INDIRECT_CALL: 0
BRANCH_RETURN: 1e-06

