
*** ChampSim Multicore Out-of-Order Simulator ***

Warmup Instructions: 1000000
Simulation Instructions: 1000000000
Number of CPUs: 1
Off-chip DRAM Size: 4 GiB Channels: 1 Width: 64-bit Data Rate: 3200 MT/s

VirtualMemory physical capacity: 8588881920 num_ppages: 2096895
VirtualMemory page size: 4096 log2_page_size: 12

CPU 0 runs tracer/pin/traces/spec2k6/456.hmmer-191B.champsimtrace.xz
Basic BTB sets: 1024 ways: 8 indirect buffer size: 4096 RAS size: 64
cpu0_L1D next line prefetcher
cpu0_L2C IP-based stride prefetcher
WARNING: The extended signature CACHE::prefetch_line(ip, base_addr, pf_addr, fill_this_level, prefetch_metadata) is deprecated.
WARNING: Use CACHE::prefetch_line(pf_addr, fill_this_level, prefetch_metadata) instead.

Warmup complete CPU 0 instructions: 1000001 cycles: 395026 (Simulation time: 0 hr 0 min 4 sec) 

Heartbeat CPU 0 instructions: 10000001 cycles: 5546559 heartbeat IPC: 1.80292 cumulative IPC: 1.74705 (Simulation time: 0 hr 0 min 48 sec) 
Heartbeat CPU 0 instructions: 20000001 cycles: 14604282 heartbeat IPC: 1.10403 cumulative IPC: 1.33716 (Simulation time: 0 hr 1 min 47 sec) 
Heartbeat CPU 0 instructions: 30000001 cycles: 25253434 heartbeat IPC: 0.939042 cumulative IPC: 1.16661 (Simulation time: 0 hr 2 min 53 sec) 
Heartbeat CPU 0 instructions: 40000002 cycles: 35036931 heartbeat IPC: 1.02213 cumulative IPC: 1.1258 (Simulation time: 0 hr 3 min 57 sec) 
Heartbeat CPU 0 instructions: 50000001 cycles: 40500688 heartbeat IPC: 1.83024 cumulative IPC: 1.22177 (Simulation time: 0 hr 4 min 48 sec) 
Heartbeat CPU 0 instructions: 60000003 cycles: 44903382 heartbeat IPC: 2.27134 cumulative IPC: 1.32559 (Simulation time: 0 hr 5 min 37 sec) 
Heartbeat CPU 0 instructions: 70000002 cycles: 49467464 heartbeat IPC: 2.19102 cumulative IPC: 1.40608 (Simulation time: 0 hr 6 min 29 sec) 
Heartbeat CPU 0 instructions: 80000001 cycles: 53862433 heartbeat IPC: 2.27533 cumulative IPC: 1.47754 (Simulation time: 0 hr 7 min 20 sec) 
Heartbeat CPU 0 instructions: 90000000 cycles: 58253599 heartbeat IPC: 2.2773 cumulative IPC: 1.53823 (Simulation time: 0 hr 8 min 10 sec) 
Heartbeat CPU 0 instructions: 100000001 cycles: 62693382 heartbeat IPC: 2.25236 cumulative IPC: 1.58913 (Simulation time: 0 hr 9 min 3 sec) 
Heartbeat CPU 0 instructions: 110000003 cycles: 67621839 heartbeat IPC: 2.02903 cumulative IPC: 1.62138 (Simulation time: 0 hr 9 min 58 sec) 
Heartbeat CPU 0 instructions: 120000001 cycles: 72162008 heartbeat IPC: 2.20256 cumulative IPC: 1.65814 (Simulation time: 0 hr 10 min 48 sec) 
Heartbeat CPU 0 instructions: 130000001 cycles: 76672949 heartbeat IPC: 2.21683 cumulative IPC: 1.69118 (Simulation time: 0 hr 11 min 40 sec) 
Heartbeat CPU 0 instructions: 140000004 cycles: 81076138 heartbeat IPC: 2.27108 cumulative IPC: 1.72283 (Simulation time: 0 hr 12 min 32 sec) 
Heartbeat CPU 0 instructions: 150000000 cycles: 85461208 heartbeat IPC: 2.28046 cumulative IPC: 1.75158 (Simulation time: 0 hr 13 min 21 sec) 
Heartbeat CPU 0 instructions: 160000004 cycles: 90280201 heartbeat IPC: 2.07512 cumulative IPC: 1.76892 (Simulation time: 0 hr 14 min 15 sec) 
Heartbeat CPU 0 instructions: 170000002 cycles: 94783665 heartbeat IPC: 2.22051 cumulative IPC: 1.79047 (Simulation time: 0 hr 15 min 8 sec) 
Heartbeat CPU 0 instructions: 180000000 cycles: 101885049 heartbeat IPC: 1.40818 cumulative IPC: 1.76372 (Simulation time: 0 hr 16 min 13 sec) 
Heartbeat CPU 0 instructions: 190000004 cycles: 107943963 heartbeat IPC: 1.65046 cumulative IPC: 1.75734 (Simulation time: 0 hr 17 min 13 sec) 
Heartbeat CPU 0 instructions: 200000000 cycles: 112808832 heartbeat IPC: 2.05555 cumulative IPC: 1.77025 (Simulation time: 0 hr 18 min 10 sec) 
Heartbeat CPU 0 instructions: 210000004 cycles: 119649115 heartbeat IPC: 1.46193 cumulative IPC: 1.75256 (Simulation time: 0 hr 19 min 17 sec) 
Heartbeat CPU 0 instructions: 220000004 cycles: 129724508 heartbeat IPC: 0.992517 cumulative IPC: 1.69335 (Simulation time: 0 hr 20 min 40 sec) 
Heartbeat CPU 0 instructions: 230000003 cycles: 137972836 heartbeat IPC: 1.21237 cumulative IPC: 1.66451 (Simulation time: 0 hr 21 min 54 sec) 
Heartbeat CPU 0 instructions: 240000000 cycles: 142822767 heartbeat IPC: 2.06188 cumulative IPC: 1.67804 (Simulation time: 0 hr 22 min 52 sec) 
Heartbeat CPU 0 instructions: 250000000 cycles: 147295002 heartbeat IPC: 2.23602 cumulative IPC: 1.69503 (Simulation time: 0 hr 23 min 50 sec) 
Heartbeat CPU 0 instructions: 260000000 cycles: 151751741 heartbeat IPC: 2.24379 cumulative IPC: 1.71119 (Simulation time: 0 hr 24 min 47 sec) 
Heartbeat CPU 0 instructions: 270000000 cycles: 156297776 heartbeat IPC: 2.19972 cumulative IPC: 1.72543 (Simulation time: 0 hr 25 min 45 sec) 
Heartbeat CPU 0 instructions: 280000003 cycles: 163870826 heartbeat IPC: 1.32047 cumulative IPC: 1.70667 (Simulation time: 0 hr 26 min 57 sec) 
Heartbeat CPU 0 instructions: 290000002 cycles: 173645542 heartbeat IPC: 1.02305 cumulative IPC: 1.6681 (Simulation time: 0 hr 28 min 20 sec) 
Heartbeat CPU 0 instructions: 300000002 cycles: 181101151 heartbeat IPC: 1.34127 cumulative IPC: 1.65462 (Simulation time: 0 hr 29 min 34 sec) 
Heartbeat CPU 0 instructions: 310000004 cycles: 185823754 heartbeat IPC: 2.11748 cumulative IPC: 1.66641 (Simulation time: 0 hr 30 min 36 sec) 
Heartbeat CPU 0 instructions: 320000001 cycles: 190330380 heartbeat IPC: 2.21895 cumulative IPC: 1.67952 (Simulation time: 0 hr 31 min 38 sec) 
Heartbeat CPU 0 instructions: 330000003 cycles: 197852589 heartbeat IPC: 1.3294 cumulative IPC: 1.66618 (Simulation time: 0 hr 32 min 56 sec) 
Heartbeat CPU 0 instructions: 340000000 cycles: 208095893 heartbeat IPC: 0.976247 cumulative IPC: 1.63215 (Simulation time: 0 hr 34 min 24 sec) 
Heartbeat CPU 0 instructions: 350000002 cycles: 216387140 heartbeat IPC: 1.20609 cumulative IPC: 1.6158 (Simulation time: 0 hr 35 min 43 sec) 
Heartbeat CPU 0 instructions: 360000004 cycles: 220845658 heartbeat IPC: 2.2429 cumulative IPC: 1.62848 (Simulation time: 0 hr 36 min 42 sec) 
Heartbeat CPU 0 instructions: 370000001 cycles: 225554019 heartbeat IPC: 2.12388 cumulative IPC: 1.63884 (Simulation time: 0 hr 37 min 46 sec) 
Heartbeat CPU 0 instructions: 380000003 cycles: 230713256 heartbeat IPC: 1.93827 cumulative IPC: 1.64555 (Simulation time: 0 hr 38 min 53 sec) 
Heartbeat CPU 0 instructions: 390000003 cycles: 235461251 heartbeat IPC: 2.10615 cumulative IPC: 1.65485 (Simulation time: 0 hr 39 min 57 sec) 
Heartbeat CPU 0 instructions: 400000003 cycles: 240228405 heartbeat IPC: 2.09769 cumulative IPC: 1.66366 (Simulation time: 0 hr 41 min 1 sec) 
Heartbeat CPU 0 instructions: 410000004 cycles: 245198909 heartbeat IPC: 2.01187 cumulative IPC: 1.67073 (Simulation time: 0 hr 42 min 11 sec) 
Heartbeat CPU 0 instructions: 420000001 cycles: 250696889 heartbeat IPC: 1.81885 cumulative IPC: 1.67398 (Simulation time: 0 hr 43 min 24 sec) 
Heartbeat CPU 0 instructions: 430000001 cycles: 256184412 heartbeat IPC: 1.82232 cumulative IPC: 1.67716 (Simulation time: 0 hr 44 min 35 sec) 
Heartbeat CPU 0 instructions: 440000000 cycles: 260869010 heartbeat IPC: 2.13465 cumulative IPC: 1.68539 (Simulation time: 0 hr 45 min 42 sec) 
Heartbeat CPU 0 instructions: 450000002 cycles: 265324754 heartbeat IPC: 2.24429 cumulative IPC: 1.69479 (Simulation time: 0 hr 46 min 48 sec) 
Heartbeat CPU 0 instructions: 460000000 cycles: 270422014 heartbeat IPC: 1.96184 cumulative IPC: 1.69983 (Simulation time: 0 hr 47 min 58 sec) 
Heartbeat CPU 0 instructions: 470000004 cycles: 275141283 heartbeat IPC: 2.11897 cumulative IPC: 1.70703 (Simulation time: 0 hr 49 min 6 sec) 
Heartbeat CPU 0 instructions: 480000004 cycles: 279593708 heartbeat IPC: 2.24597 cumulative IPC: 1.71562 (Simulation time: 0 hr 50 min 12 sec) 
Heartbeat CPU 0 instructions: 490000003 cycles: 284044069 heartbeat IPC: 2.24701 cumulative IPC: 1.72396 (Simulation time: 0 hr 51 min 17 sec) 
Heartbeat CPU 0 instructions: 500000002 cycles: 288511249 heartbeat IPC: 2.23855 cumulative IPC: 1.73194 (Simulation time: 0 hr 52 min 24 sec) 
Heartbeat CPU 0 instructions: 510000000 cycles: 293022563 heartbeat IPC: 2.21665 cumulative IPC: 1.73941 (Simulation time: 0 hr 53 min 31 sec) 
Heartbeat CPU 0 instructions: 520000000 cycles: 298126307 heartbeat IPC: 1.95935 cumulative IPC: 1.74318 (Simulation time: 0 hr 54 min 40 sec) 
Heartbeat CPU 0 instructions: 530000002 cycles: 302758289 heartbeat IPC: 2.1589 cumulative IPC: 1.74955 (Simulation time: 0 hr 55 min 47 sec) 
Heartbeat CPU 0 instructions: 540000002 cycles: 307215479 heartbeat IPC: 2.24357 cumulative IPC: 1.75673 (Simulation time: 0 hr 56 min 53 sec) 
Heartbeat CPU 0 instructions: 550000003 cycles: 311687064 heartbeat IPC: 2.23634 cumulative IPC: 1.76362 (Simulation time: 0 hr 57 min 58 sec) 
Heartbeat CPU 0 instructions: 560000001 cycles: 316128643 heartbeat IPC: 2.25145 cumulative IPC: 1.77048 (Simulation time: 0 hr 59 min 4 sec) 
Heartbeat CPU 0 instructions: 570000001 cycles: 320660889 heartbeat IPC: 2.20641 cumulative IPC: 1.77665 (Simulation time: 1 hr 0 min 10 sec) 
Heartbeat CPU 0 instructions: 580000002 cycles: 325431782 heartbeat IPC: 2.09604 cumulative IPC: 1.78134 (Simulation time: 1 hr 1 min 18 sec) 
Heartbeat CPU 0 instructions: 590000000 cycles: 330100614 heartbeat IPC: 2.14186 cumulative IPC: 1.78644 (Simulation time: 1 hr 2 min 24 sec) 
Heartbeat CPU 0 instructions: 600000001 cycles: 334589426 heartbeat IPC: 2.22776 cumulative IPC: 1.79237 (Simulation time: 1 hr 3 min 27 sec) 
Heartbeat CPU 0 instructions: 610000003 cycles: 339093647 heartbeat IPC: 2.22014 cumulative IPC: 1.79806 (Simulation time: 1 hr 4 min 32 sec) 
Heartbeat CPU 0 instructions: 620000003 cycles: 343582006 heartbeat IPC: 2.22799 cumulative IPC: 1.80368 (Simulation time: 1 hr 5 min 36 sec) 
Heartbeat CPU 0 instructions: 630000001 cycles: 348073981 heartbeat IPC: 2.22619 cumulative IPC: 1.80914 (Simulation time: 1 hr 6 min 40 sec) 
Heartbeat CPU 0 instructions: 640000002 cycles: 352561118 heartbeat IPC: 2.22859 cumulative IPC: 1.81448 (Simulation time: 1 hr 7 min 43 sec) 
Heartbeat CPU 0 instructions: 650000000 cycles: 357044130 heartbeat IPC: 2.23064 cumulative IPC: 1.81972 (Simulation time: 1 hr 8 min 43 sec) 
Heartbeat CPU 0 instructions: 660000004 cycles: 361517726 heartbeat IPC: 2.23534 cumulative IPC: 1.82486 (Simulation time: 1 hr 9 min 45 sec) 
Heartbeat CPU 0 instructions: 670000001 cycles: 365993298 heartbeat IPC: 2.23435 cumulative IPC: 1.82988 (Simulation time: 1 hr 10 min 46 sec) 
Heartbeat CPU 0 instructions: 680000001 cycles: 370480628 heartbeat IPC: 2.2285 cumulative IPC: 1.83471 (Simulation time: 1 hr 11 min 49 sec) 
Heartbeat CPU 0 instructions: 690000001 cycles: 374969601 heartbeat IPC: 2.22768 cumulative IPC: 1.83942 (Simulation time: 1 hr 12 min 51 sec) 
Heartbeat CPU 0 instructions: 700000001 cycles: 379827131 heartbeat IPC: 2.05866 cumulative IPC: 1.84223 (Simulation time: 1 hr 13 min 55 sec) 
Heartbeat CPU 0 instructions: 710000001 cycles: 384570807 heartbeat IPC: 2.10807 cumulative IPC: 1.84551 (Simulation time: 1 hr 14 min 59 sec) 
Heartbeat CPU 0 instructions: 720000003 cycles: 389067495 heartbeat IPC: 2.22386 cumulative IPC: 1.84989 (Simulation time: 1 hr 16 min 1 sec) 
Heartbeat CPU 0 instructions: 730000000 cycles: 393550433 heartbeat IPC: 2.23068 cumulative IPC: 1.85423 (Simulation time: 1 hr 17 min 2 sec) 
Heartbeat CPU 0 instructions: 740000004 cycles: 398024327 heartbeat IPC: 2.23519 cumulative IPC: 1.85851 (Simulation time: 1 hr 18 min 5 sec) 
Heartbeat CPU 0 instructions: 750000001 cycles: 402500224 heartbeat IPC: 2.23419 cumulative IPC: 1.8627 (Simulation time: 1 hr 19 min 6 sec) 
Heartbeat CPU 0 instructions: 760000002 cycles: 406975617 heartbeat IPC: 2.23444 cumulative IPC: 1.86679 (Simulation time: 1 hr 20 min 10 sec) 
Heartbeat CPU 0 instructions: 770000000 cycles: 411440296 heartbeat IPC: 2.2398 cumulative IPC: 1.87084 (Simulation time: 1 hr 21 min 13 sec) 
Heartbeat CPU 0 instructions: 780000002 cycles: 415895357 heartbeat IPC: 2.24464 cumulative IPC: 1.87485 (Simulation time: 1 hr 22 min 16 sec) 
Heartbeat CPU 0 instructions: 790000001 cycles: 420378129 heartbeat IPC: 2.23076 cumulative IPC: 1.87865 (Simulation time: 1 hr 23 min 16 sec) 
Heartbeat CPU 0 instructions: 800000001 cycles: 424857818 heartbeat IPC: 2.2323 cumulative IPC: 1.88238 (Simulation time: 1 hr 24 min 17 sec) 
Heartbeat CPU 0 instructions: 810000002 cycles: 429345532 heartbeat IPC: 2.22831 cumulative IPC: 1.886 (Simulation time: 1 hr 25 min 17 sec) 
Heartbeat CPU 0 instructions: 820000000 cycles: 433799497 heartbeat IPC: 2.24519 cumulative IPC: 1.88969 (Simulation time: 1 hr 26 min 17 sec) 
Heartbeat CPU 0 instructions: 830000003 cycles: 438269056 heartbeat IPC: 2.23736 cumulative IPC: 1.89324 (Simulation time: 1 hr 27 min 17 sec) 
Heartbeat CPU 0 instructions: 840000000 cycles: 446145356 heartbeat IPC: 1.26963 cumulative IPC: 1.88222 (Simulation time: 1 hr 28 min 34 sec) 
Heartbeat CPU 0 instructions: 850000003 cycles: 454592048 heartbeat IPC: 1.1839 cumulative IPC: 1.86923 (Simulation time: 1 hr 29 min 55 sec) 
Heartbeat CPU 0 instructions: 860000000 cycles: 462803073 heartbeat IPC: 1.21787 cumulative IPC: 1.85767 (Simulation time: 1 hr 31 min 11 sec) 
Heartbeat CPU 0 instructions: 870000002 cycles: 471361083 heartbeat IPC: 1.1685 cumulative IPC: 1.84514 (Simulation time: 1 hr 32 min 31 sec) 
Heartbeat CPU 0 instructions: 880000002 cycles: 479721686 heartbeat IPC: 1.19609 cumulative IPC: 1.83382 (Simulation time: 1 hr 33 min 50 sec) 
Heartbeat CPU 0 instructions: 890000002 cycles: 487764162 heartbeat IPC: 1.2434 cumulative IPC: 1.82408 (Simulation time: 1 hr 35 min 8 sec) 
Heartbeat CPU 0 instructions: 900000001 cycles: 492689188 heartbeat IPC: 2.03045 cumulative IPC: 1.82614 (Simulation time: 1 hr 36 min 10 sec) 
Heartbeat CPU 0 instructions: 910000000 cycles: 497089370 heartbeat IPC: 2.27263 cumulative IPC: 1.8301 (Simulation time: 1 hr 37 min 7 sec) 
Heartbeat CPU 0 instructions: 920000001 cycles: 501659064 heartbeat IPC: 2.18833 cumulative IPC: 1.83337 (Simulation time: 1 hr 38 min 6 sec) 
Heartbeat CPU 0 instructions: 930000001 cycles: 510416321 heartbeat IPC: 1.14191 cumulative IPC: 1.82149 (Simulation time: 1 hr 39 min 28 sec) 
Heartbeat CPU 0 instructions: 940000004 cycles: 517532706 heartbeat IPC: 1.40521 cumulative IPC: 1.81576 (Simulation time: 1 hr 40 min 40 sec) 
Heartbeat CPU 0 instructions: 950000000 cycles: 524124034 heartbeat IPC: 1.51714 cumulative IPC: 1.81201 (Simulation time: 1 hr 41 min 50 sec) 
Heartbeat CPU 0 instructions: 960000004 cycles: 528602948 heartbeat IPC: 2.23269 cumulative IPC: 1.81557 (Simulation time: 1 hr 42 min 51 sec) 
Heartbeat CPU 0 instructions: 970000004 cycles: 534794590 heartbeat IPC: 1.61508 cumulative IPC: 1.81325 (Simulation time: 1 hr 43 min 59 sec) 
Heartbeat CPU 0 instructions: 980000004 cycles: 541155177 heartbeat IPC: 1.57218 cumulative IPC: 1.81041 (Simulation time: 1 hr 45 min 8 sec) 
Heartbeat CPU 0 instructions: 990000000 cycles: 546521474 heartbeat IPC: 1.86348 cumulative IPC: 1.81094 (Simulation time: 1 hr 46 min 15 sec) 
Heartbeat CPU 0 instructions: 1000000001 cycles: 551057071 heartbeat IPC: 2.20478 cumulative IPC: 1.81418 (Simulation time: 1 hr 47 min 17 sec) 
Finished CPU 0 instructions: 1000000001 cycles: 551099309 cumulative IPC: 1.81455 (Simulation time: 1 hr 47 min 23 sec) 

ChampSim completed all CPUs

Region of Interest Statistics

CPU 0 cumulative IPC: 1.81455 instructions: 1000000001 cycles: 551099309
cpu0_DTLB TOTAL     ACCESS:  381581005  HIT:  381512924  MISS:      68081
cpu0_DTLB LOAD      ACCESS:  292096432  HIT:  292072178  MISS:      24254
cpu0_DTLB RFO       ACCESS:   89484573  HIT:   89440746  MISS:      43827
cpu0_DTLB PREFETCH  ACCESS:          0  HIT:          0  MISS:          0
cpu0_DTLB WRITEBACK ACCESS:          0  HIT:          0  MISS:          0
cpu0_DTLB TRANSLATION ACCESS:          0  HIT:          0  MISS:          0
cpu0_DTLB PREFETCH  REQUESTED:          0  ISSUED:          0  USEFUL:          0  USELESS:          0
cpu0_DTLB AVERAGE MISS LATENCY: 12.9131 cycles
cpu0_ITLB TOTAL     ACCESS:   15556411  HIT:   15556378  MISS:         33
cpu0_ITLB LOAD      ACCESS:   15556411  HIT:   15556378  MISS:         33
cpu0_ITLB RFO       ACCESS:          0  HIT:          0  MISS:          0
cpu0_ITLB PREFETCH  ACCESS:          0  HIT:          0  MISS:          0
cpu0_ITLB WRITEBACK ACCESS:          0  HIT:          0  MISS:          0
cpu0_ITLB TRANSLATION ACCESS:          0  HIT:          0  MISS:          0
cpu0_ITLB PREFETCH  REQUESTED:          0  ISSUED:          0  USEFUL:          0  USELESS:          0
cpu0_ITLB AVERAGE MISS LATENCY: 253.879 cycles
cpu0_L1I TOTAL     ACCESS:     825220  HIT:     824894  MISS:        326
cpu0_L1I LOAD      ACCESS:     825220  HIT:     824894  MISS:        326
cpu0_L1I RFO       ACCESS:          0  HIT:          0  MISS:          0
cpu0_L1I PREFETCH  ACCESS:          0  HIT:          0  MISS:          0
cpu0_L1I WRITEBACK ACCESS:          0  HIT:          0  MISS:          0
cpu0_L1I TRANSLATION ACCESS:          0  HIT:          0  MISS:          0
cpu0_L1I PREFETCH  REQUESTED:          0  ISSUED:          0  USEFUL:          0  USELESS:          0
cpu0_L1I AVERAGE MISS LATENCY: 550.896 cycles
cpu0_STLB TOTAL     ACCESS:      68114  HIT:      66895  MISS:       1219
cpu0_STLB LOAD      ACCESS:      24287  HIT:      24190  MISS:         97
cpu0_STLB RFO       ACCESS:      43827  HIT:      42705  MISS:       1122
cpu0_STLB PREFETCH  ACCESS:          0  HIT:          0  MISS:          0
cpu0_STLB WRITEBACK ACCESS:          0  HIT:          0  MISS:          0
cpu0_STLB TRANSLATION ACCESS:          0  HIT:          0  MISS:          0
cpu0_STLB PREFETCH  REQUESTED:          0  ISSUED:          0  USEFUL:          0  USELESS:          0
cpu0_STLB AVERAGE MISS LATENCY: 224.648 cycles
cpu0_L1D TOTAL     ACCESS:  680157611  HIT:  674695209  MISS:    5462402
cpu0_L1D LOAD      ACCESS:  319606649  HIT:  319208169  MISS:     398480
cpu0_L1D RFO       ACCESS:   68735028  HIT:   67585496  MISS:    1149532
cpu0_L1D PREFETCH  ACCESS:  291815068  HIT:  287901152  MISS:    3913916
cpu0_L1D WRITEBACK ACCESS:          0  HIT:          0  MISS:          0
cpu0_L1D TRANSLATION ACCESS:        866  HIT:        392  MISS:        474
cpu0_L1D PREFETCH  REQUESTED:  319991610  ISSUED:  295929855  USEFUL:    4090016  USELESS:      49709
cpu0_L1D AVERAGE MISS LATENCY: 110.262 cycles
cpu0_L2C TOTAL     ACCESS:    8290255  HIT:    5267950  MISS:    3022305
cpu0_L2C LOAD      ACCESS:     393239  HIT:     323572  MISS:      69667
cpu0_L2C RFO       ACCESS:     928954  HIT:       4414  MISS:     924540
cpu0_L2C PREFETCH  ACCESS:    4293061  HIT:    2265384  MISS:    2027677
cpu0_L2C WRITEBACK ACCESS:    2674527  HIT:    2674148  MISS:        379
cpu0_L2C TRANSLATION ACCESS:        474  HIT:        432  MISS:         42
cpu0_L2C PREFETCH  REQUESTED:     164835  ISSUED:     160991  USEFUL:       7553  USELESS:       7980
cpu0_L2C AVERAGE MISS LATENCY: 277.437 cycles
LLC TOTAL     ACCESS:    5682156  HIT:    4713619  MISS:     968537
LLC LOAD      ACCESS:      69665  HIT:      59427  MISS:      10238
LLC RFO       ACCESS:     924540  HIT:     644604  MISS:     279936
LLC PREFETCH  ACCESS:    2028243  HIT:    1461211  MISS:     567032
LLC WRITEBACK ACCESS:    2659666  HIT:    2548357  MISS:     111309
LLC TRANSLATION ACCESS:         42  HIT:         20  MISS:         22
LLC PREFETCH  REQUESTED:          0  ISSUED:          0  USEFUL:          0  USELESS:          0
LLC AVERAGE MISS LATENCY: 782.17 cycles

DRAM Statistics
 CHANNEL 0
 RQ ROW_BUFFER_HIT:      18528  ROW_BUFFER_MISS:     837952
 DBUS AVG_CONGESTED_CYCLE:    3.99343
 WQ ROW_BUFFER_HIT:      63467  ROW_BUFFER_MISS:     687034  FULL:          0


CPU 0 Branch Prediction Accuracy: 99.3347% MPKI: 0.294153 Average ROB Occupancy at Mispredict: 80.363
Branch type MPKI
BRANCH_DIRECT_JUMP: 6.9e-05
BRANCH_INDIRECT: 0.000371
BRANCH_CONDITIONAL: 0.293517
BRANCH_DIRECT_CALL: 8.5e-05
BRANCH_INDIRECT_CALL: 2.7e-05
BRANCH_RETURN: 8.4e-05

