
*** ChampSim Multicore Out-of-Order Simulator ***

Warmup Instructions: 1000000
Simulation Instructions: 1000000000
Number of CPUs: 1
Off-chip DRAM Size: 4 GiB Channels: 1 Width: 64-bit Data Rate: 3200 MT/s

VirtualMemory physical capacity: 8588881920 num_ppages: 2096895
VirtualMemory page size: 4096 log2_page_size: 12

CPU 0 runs tracer/pin/traces/spec2k6/458.sjeng-1088B.champsimtrace.xz
Basic BTB sets: 1024 ways: 8 indirect buffer size: 4096 RAS size: 64
cpu0_L1D next line prefetcher
cpu0_L2C IP-based stride prefetcher
WARNING: The extended signature CACHE::prefetch_line(ip, base_addr, pf_addr, fill_this_level, prefetch_metadata) is deprecated.
WARNING: Use CACHE::prefetch_line(pf_addr, fill_this_level, prefetch_metadata) instead.

Warmup complete CPU 0 instructions: 1000004 cycles: 251238 (Simulation time: 0 hr 0 min 3 sec) 

Heartbeat CPU 0 instructions: 10000000 cycles: 9847455 heartbeat IPC: 1.01549 cumulative IPC: 0.937869 (Simulation time: 0 hr 0 min 38 sec) 
Heartbeat CPU 0 instructions: 20000001 cycles: 20442224 heartbeat IPC: 0.943862 cumulative IPC: 0.941014 (Simulation time: 0 hr 1 min 19 sec) 
Heartbeat CPU 0 instructions: 30000001 cycles: 30802317 heartbeat IPC: 0.965242 cumulative IPC: 0.94923 (Simulation time: 0 hr 1 min 57 sec) 
Heartbeat CPU 0 instructions: 40000000 cycles: 40971679 heartbeat IPC: 0.983346 cumulative IPC: 0.95775 (Simulation time: 0 hr 2 min 37 sec) 
Heartbeat CPU 0 instructions: 50000001 cycles: 51377578 heartbeat IPC: 0.960993 cumulative IPC: 0.95841 (Simulation time: 0 hr 3 min 18 sec) 
Heartbeat CPU 0 instructions: 60000004 cycles: 61623058 heartbeat IPC: 0.97604 cumulative IPC: 0.961353 (Simulation time: 0 hr 4 min 0 sec) 
Heartbeat CPU 0 instructions: 70000002 cycles: 71847193 heartbeat IPC: 0.978078 cumulative IPC: 0.963742 (Simulation time: 0 hr 4 min 44 sec) 
Heartbeat CPU 0 instructions: 80000003 cycles: 81870216 heartbeat IPC: 0.997703 cumulative IPC: 0.967912 (Simulation time: 0 hr 5 min 29 sec) 
Heartbeat CPU 0 instructions: 90000001 cycles: 91983617 heartbeat IPC: 0.988787 cumulative IPC: 0.970214 (Simulation time: 0 hr 6 min 12 sec) 
Heartbeat CPU 0 instructions: 100000004 cycles: 102114162 heartbeat IPC: 0.987114 cumulative IPC: 0.971894 (Simulation time: 0 hr 6 min 56 sec) 
Heartbeat CPU 0 instructions: 110000003 cycles: 112277898 heartbeat IPC: 0.98389 cumulative IPC: 0.972983 (Simulation time: 0 hr 7 min 37 sec) 
Heartbeat CPU 0 instructions: 120000000 cycles: 122472396 heartbeat IPC: 0.980921 cumulative IPC: 0.973645 (Simulation time: 0 hr 8 min 22 sec) 
Heartbeat CPU 0 instructions: 130000002 cycles: 132342707 heartbeat IPC: 1.01314 cumulative IPC: 0.976596 (Simulation time: 0 hr 9 min 4 sec) 
Heartbeat CPU 0 instructions: 140000000 cycles: 142442691 heartbeat IPC: 0.9901 cumulative IPC: 0.977555 (Simulation time: 0 hr 9 min 48 sec) 
Heartbeat CPU 0 instructions: 150000003 cycles: 152462969 heartbeat IPC: 0.997977 cumulative IPC: 0.9789 (Simulation time: 0 hr 10 min 32 sec) 
Heartbeat CPU 0 instructions: 160000002 cycles: 162474623 heartbeat IPC: 0.998836 cumulative IPC: 0.98013 (Simulation time: 0 hr 11 min 14 sec) 
Heartbeat CPU 0 instructions: 170000000 cycles: 172575676 heartbeat IPC: 0.989996 cumulative IPC: 0.980708 (Simulation time: 0 hr 11 min 57 sec) 
Heartbeat CPU 0 instructions: 180000004 cycles: 182615785 heartbeat IPC: 0.996006 cumulative IPC: 0.98155 (Simulation time: 0 hr 12 min 40 sec) 
Heartbeat CPU 0 instructions: 190000002 cycles: 192738629 heartbeat IPC: 0.987864 cumulative IPC: 0.981883 (Simulation time: 0 hr 13 min 25 sec) 
Heartbeat CPU 0 instructions: 200000001 cycles: 202745183 heartbeat IPC: 0.999345 cumulative IPC: 0.982745 (Simulation time: 0 hr 14 min 8 sec) 
Heartbeat CPU 0 instructions: 210000000 cycles: 213086263 heartbeat IPC: 0.967017 cumulative IPC: 0.981981 (Simulation time: 0 hr 14 min 52 sec) 
Heartbeat CPU 0 instructions: 220000002 cycles: 222822358 heartbeat IPC: 1.02711 cumulative IPC: 0.983955 (Simulation time: 0 hr 15 min 38 sec) 
Heartbeat CPU 0 instructions: 230000001 cycles: 232683222 heartbeat IPC: 1.01411 cumulative IPC: 0.985234 (Simulation time: 0 hr 16 min 25 sec) 
Heartbeat CPU 0 instructions: 240000004 cycles: 242778625 heartbeat IPC: 0.99055 cumulative IPC: 0.985456 (Simulation time: 0 hr 17 min 12 sec) 
Heartbeat CPU 0 instructions: 250000002 cycles: 252907846 heartbeat IPC: 0.987243 cumulative IPC: 0.985527 (Simulation time: 0 hr 18 min 0 sec) 
Heartbeat CPU 0 instructions: 260000002 cycles: 262944491 heartbeat IPC: 0.996349 cumulative IPC: 0.985941 (Simulation time: 0 hr 18 min 47 sec) 
Heartbeat CPU 0 instructions: 270000003 cycles: 272364112 heartbeat IPC: 1.06161 cumulative IPC: 0.98856 (Simulation time: 0 hr 19 min 33 sec) 
Heartbeat CPU 0 instructions: 280000000 cycles: 282268034 heartbeat IPC: 1.0097 cumulative IPC: 0.989303 (Simulation time: 0 hr 20 min 19 sec) 
Heartbeat CPU 0 instructions: 290000000 cycles: 292024467 heartbeat IPC: 1.02496 cumulative IPC: 0.990495 (Simulation time: 0 hr 21 min 5 sec) 
Heartbeat CPU 0 instructions: 300000004 cycles: 302099844 heartbeat IPC: 0.992519 cumulative IPC: 0.990563 (Simulation time: 0 hr 21 min 51 sec) 
Heartbeat CPU 0 instructions: 310000002 cycles: 311948520 heartbeat IPC: 1.01536 cumulative IPC: 0.991346 (Simulation time: 0 hr 22 min 37 sec) 
Heartbeat CPU 0 instructions: 320000003 cycles: 322079877 heartbeat IPC: 0.987035 cumulative IPC: 0.991211 (Simulation time: 0 hr 23 min 24 sec) 
Heartbeat CPU 0 instructions: 330000004 cycles: 332353858 heartbeat IPC: 0.973333 cumulative IPC: 0.990658 (Simulation time: 0 hr 24 min 10 sec) 
Heartbeat CPU 0 instructions: 340000002 cycles: 342367115 heartbeat IPC: 0.998676 cumulative IPC: 0.990892 (Simulation time: 0 hr 24 min 55 sec) 
Heartbeat CPU 0 instructions: 350000001 cycles: 352347968 heartbeat IPC: 1.00192 cumulative IPC: 0.991205 (Simulation time: 0 hr 25 min 42 sec) 
Heartbeat CPU 0 instructions: 360000000 cycles: 362583216 heartbeat IPC: 0.977016 cumulative IPC: 0.990804 (Simulation time: 0 hr 26 min 30 sec) 
Heartbeat CPU 0 instructions: 370000002 cycles: 372600228 heartbeat IPC: 0.998302 cumulative IPC: 0.991006 (Simulation time: 0 hr 27 min 18 sec) 
Heartbeat CPU 0 instructions: 380000000 cycles: 382573924 heartbeat IPC: 1.00264 cumulative IPC: 0.991309 (Simulation time: 0 hr 28 min 7 sec) 
Heartbeat CPU 0 instructions: 390000004 cycles: 392669359 heartbeat IPC: 0.990547 cumulative IPC: 0.99129 (Simulation time: 0 hr 28 min 56 sec) 
Heartbeat CPU 0 instructions: 400000000 cycles: 403004721 heartbeat IPC: 0.967552 cumulative IPC: 0.99068 (Simulation time: 0 hr 29 min 46 sec) 
Heartbeat CPU 0 instructions: 410000000 cycles: 412869686 heartbeat IPC: 1.01369 cumulative IPC: 0.99123 (Simulation time: 0 hr 30 min 34 sec) 
Heartbeat CPU 0 instructions: 420000004 cycles: 422898263 heartbeat IPC: 0.997151 cumulative IPC: 0.991371 (Simulation time: 0 hr 31 min 22 sec) 
Heartbeat CPU 0 instructions: 430000000 cycles: 433075353 heartbeat IPC: 0.982599 cumulative IPC: 0.991165 (Simulation time: 0 hr 32 min 9 sec) 
Heartbeat CPU 0 instructions: 440000002 cycles: 443285989 heartbeat IPC: 0.979371 cumulative IPC: 0.990893 (Simulation time: 0 hr 32 min 57 sec) 
Heartbeat CPU 0 instructions: 450000001 cycles: 453309816 heartbeat IPC: 0.997623 cumulative IPC: 0.991042 (Simulation time: 0 hr 33 min 45 sec) 
Heartbeat CPU 0 instructions: 460000002 cycles: 463147411 heartbeat IPC: 1.01651 cumulative IPC: 0.991583 (Simulation time: 0 hr 34 min 35 sec) 
Heartbeat CPU 0 instructions: 470000001 cycles: 473084243 heartbeat IPC: 1.00636 cumulative IPC: 0.991894 (Simulation time: 0 hr 35 min 25 sec) 
Heartbeat CPU 0 instructions: 480000001 cycles: 483200639 heartbeat IPC: 0.988494 cumulative IPC: 0.991822 (Simulation time: 0 hr 36 min 15 sec) 
Heartbeat CPU 0 instructions: 490000003 cycles: 493125242 heartbeat IPC: 1.0076 cumulative IPC: 0.99214 (Simulation time: 0 hr 37 min 5 sec) 
Heartbeat CPU 0 instructions: 500000000 cycles: 503217523 heartbeat IPC: 0.990856 cumulative IPC: 0.992114 (Simulation time: 0 hr 37 min 55 sec) 
Heartbeat CPU 0 instructions: 510000000 cycles: 513406132 heartbeat IPC: 0.981488 cumulative IPC: 0.991903 (Simulation time: 0 hr 38 min 46 sec) 
Heartbeat CPU 0 instructions: 520000003 cycles: 523638234 heartbeat IPC: 0.977317 cumulative IPC: 0.991618 (Simulation time: 0 hr 39 min 40 sec) 
Heartbeat CPU 0 instructions: 530000004 cycles: 533764372 heartbeat IPC: 0.987543 cumulative IPC: 0.991541 (Simulation time: 0 hr 40 min 33 sec) 
Heartbeat CPU 0 instructions: 540000004 cycles: 544010612 heartbeat IPC: 0.975968 cumulative IPC: 0.991247 (Simulation time: 0 hr 41 min 25 sec) 
Heartbeat CPU 0 instructions: 550000004 cycles: 554026598 heartbeat IPC: 0.998404 cumulative IPC: 0.991377 (Simulation time: 0 hr 42 min 18 sec) 
Heartbeat CPU 0 instructions: 560000004 cycles: 564198361 heartbeat IPC: 0.983114 cumulative IPC: 0.991228 (Simulation time: 0 hr 43 min 11 sec) 
Heartbeat CPU 0 instructions: 570000002 cycles: 574385858 heartbeat IPC: 0.981595 cumulative IPC: 0.991057 (Simulation time: 0 hr 44 min 4 sec) 
Heartbeat CPU 0 instructions: 580000002 cycles: 584196869 heartbeat IPC: 1.01926 cumulative IPC: 0.991531 (Simulation time: 0 hr 44 min 53 sec) 
Heartbeat CPU 0 instructions: 590000004 cycles: 593766919 heartbeat IPC: 1.04493 cumulative IPC: 0.992392 (Simulation time: 0 hr 45 min 45 sec) 
Heartbeat CPU 0 instructions: 600000000 cycles: 603516349 heartbeat IPC: 1.0257 cumulative IPC: 0.99293 (Simulation time: 0 hr 46 min 37 sec) 
Heartbeat CPU 0 instructions: 610000000 cycles: 613324985 heartbeat IPC: 1.01951 cumulative IPC: 0.993355 (Simulation time: 0 hr 47 min 30 sec) 
Heartbeat CPU 0 instructions: 620000003 cycles: 623236753 heartbeat IPC: 1.0089 cumulative IPC: 0.993603 (Simulation time: 0 hr 48 min 24 sec) 
Heartbeat CPU 0 instructions: 630000002 cycles: 633329987 heartbeat IPC: 0.990763 cumulative IPC: 0.993557 (Simulation time: 0 hr 49 min 19 sec) 
Heartbeat CPU 0 instructions: 640000003 cycles: 643618390 heartbeat IPC: 0.971968 cumulative IPC: 0.993212 (Simulation time: 0 hr 50 min 13 sec) 
Heartbeat CPU 0 instructions: 650000001 cycles: 653439882 heartbeat IPC: 1.01818 cumulative IPC: 0.993587 (Simulation time: 0 hr 51 min 6 sec) 
Heartbeat CPU 0 instructions: 660000000 cycles: 663542876 heartbeat IPC: 0.989806 cumulative IPC: 0.99353 (Simulation time: 0 hr 52 min 0 sec) 
Heartbeat CPU 0 instructions: 670000002 cycles: 673719342 heartbeat IPC: 0.98266 cumulative IPC: 0.993366 (Simulation time: 0 hr 52 min 55 sec) 
Heartbeat CPU 0 instructions: 680000003 cycles: 683883723 heartbeat IPC: 0.983828 cumulative IPC: 0.993224 (Simulation time: 0 hr 53 min 50 sec) 
Heartbeat CPU 0 instructions: 690000001 cycles: 693636552 heartbeat IPC: 1.02534 cumulative IPC: 0.993675 (Simulation time: 0 hr 54 min 44 sec) 
Heartbeat CPU 0 instructions: 700000004 cycles: 703538318 heartbeat IPC: 1.00992 cumulative IPC: 0.993904 (Simulation time: 0 hr 55 min 37 sec) 
Heartbeat CPU 0 instructions: 710000002 cycles: 713639204 heartbeat IPC: 0.990012 cumulative IPC: 0.993849 (Simulation time: 0 hr 56 min 30 sec) 
Heartbeat CPU 0 instructions: 720000000 cycles: 723850326 heartbeat IPC: 0.979324 cumulative IPC: 0.993644 (Simulation time: 0 hr 57 min 24 sec) 
Heartbeat CPU 0 instructions: 730000000 cycles: 734189512 heartbeat IPC: 0.967194 cumulative IPC: 0.993272 (Simulation time: 0 hr 58 min 20 sec) 
Heartbeat CPU 0 instructions: 740000001 cycles: 744321849 heartbeat IPC: 0.986939 cumulative IPC: 0.993185 (Simulation time: 0 hr 59 min 15 sec) 
Heartbeat CPU 0 instructions: 750000000 cycles: 754056808 heartbeat IPC: 1.02723 cumulative IPC: 0.993625 (Simulation time: 1 hr 0 min 9 sec) 
Heartbeat CPU 0 instructions: 760000001 cycles: 764183776 heartbeat IPC: 0.987462 cumulative IPC: 0.993543 (Simulation time: 1 hr 1 min 2 sec) 
Heartbeat CPU 0 instructions: 770000000 cycles: 774380454 heartbeat IPC: 0.980711 cumulative IPC: 0.993374 (Simulation time: 1 hr 1 min 55 sec) 
Heartbeat CPU 0 instructions: 780000003 cycles: 784444768 heartbeat IPC: 0.99361 cumulative IPC: 0.993377 (Simulation time: 1 hr 2 min 49 sec) 
Heartbeat CPU 0 instructions: 790000003 cycles: 794427513 heartbeat IPC: 1.00173 cumulative IPC: 0.993482 (Simulation time: 1 hr 3 min 42 sec) 
Heartbeat CPU 0 instructions: 800000000 cycles: 804379382 heartbeat IPC: 1.00484 cumulative IPC: 0.993623 (Simulation time: 1 hr 4 min 33 sec) 
Heartbeat CPU 0 instructions: 810000001 cycles: 814385136 heartbeat IPC: 0.999425 cumulative IPC: 0.993694 (Simulation time: 1 hr 5 min 26 sec) 
Heartbeat CPU 0 instructions: 820000000 cycles: 824548215 heartbeat IPC: 0.983954 cumulative IPC: 0.993574 (Simulation time: 1 hr 6 min 18 sec) 
Heartbeat CPU 0 instructions: 830000000 cycles: 834656048 heartbeat IPC: 0.989332 cumulative IPC: 0.993523 (Simulation time: 1 hr 7 min 11 sec) 
Heartbeat CPU 0 instructions: 840000004 cycles: 844552131 heartbeat IPC: 1.0105 cumulative IPC: 0.993722 (Simulation time: 1 hr 8 min 2 sec) 
Heartbeat CPU 0 instructions: 850000001 cycles: 854163077 heartbeat IPC: 1.04048 cumulative IPC: 0.994248 (Simulation time: 1 hr 8 min 53 sec) 
Heartbeat CPU 0 instructions: 860000000 cycles: 864102448 heartbeat IPC: 1.0061 cumulative IPC: 0.994384 (Simulation time: 1 hr 9 min 44 sec) 
Heartbeat CPU 0 instructions: 870000001 cycles: 874240533 heartbeat IPC: 0.98638 cumulative IPC: 0.994291 (Simulation time: 1 hr 10 min 35 sec) 
Heartbeat CPU 0 instructions: 880000003 cycles: 884259320 heartbeat IPC: 0.998125 cumulative IPC: 0.994335 (Simulation time: 1 hr 11 min 27 sec) 
Heartbeat CPU 0 instructions: 890000000 cycles: 894327322 heartbeat IPC: 0.993245 cumulative IPC: 0.994323 (Simulation time: 1 hr 12 min 18 sec) 
Heartbeat CPU 0 instructions: 900000000 cycles: 904410935 heartbeat IPC: 0.991708 cumulative IPC: 0.994293 (Simulation time: 1 hr 13 min 9 sec) 
Heartbeat CPU 0 instructions: 910000003 cycles: 914387483 heartbeat IPC: 1.00235 cumulative IPC: 0.994381 (Simulation time: 1 hr 14 min 0 sec) 
Heartbeat CPU 0 instructions: 920000000 cycles: 924338753 heartbeat IPC: 1.0049 cumulative IPC: 0.994495 (Simulation time: 1 hr 14 min 52 sec) 
Heartbeat CPU 0 instructions: 930000004 cycles: 934671787 heartbeat IPC: 0.96777 cumulative IPC: 0.994199 (Simulation time: 1 hr 15 min 44 sec) 
Heartbeat CPU 0 instructions: 940000002 cycles: 944874494 heartbeat IPC: 0.980132 cumulative IPC: 0.994047 (Simulation time: 1 hr 16 min 35 sec) 
Heartbeat CPU 0 instructions: 950000000 cycles: 955068708 heartbeat IPC: 0.980948 cumulative IPC: 0.993907 (Simulation time: 1 hr 17 min 27 sec) 
Heartbeat CPU 0 instructions: 960000002 cycles: 965273135 heartbeat IPC: 0.979967 cumulative IPC: 0.99376 (Simulation time: 1 hr 18 min 19 sec) 
Heartbeat CPU 0 instructions: 970000001 cycles: 975378867 heartbeat IPC: 0.989537 cumulative IPC: 0.993716 (Simulation time: 1 hr 19 min 12 sec) 
Heartbeat CPU 0 instructions: 980000002 cycles: 985597357 heartbeat IPC: 0.978618 cumulative IPC: 0.993559 (Simulation time: 1 hr 20 min 4 sec) 
Heartbeat CPU 0 instructions: 990000002 cycles: 995708053 heartbeat IPC: 0.989052 cumulative IPC: 0.993514 (Simulation time: 1 hr 20 min 55 sec) 
Heartbeat CPU 0 instructions: 1000000003 cycles: 1005947709 heartbeat IPC: 0.976595 cumulative IPC: 0.993341 (Simulation time: 1 hr 21 min 47 sec) 
Finished CPU 0 instructions: 1000000000 cycles: 1006717786 cumulative IPC: 0.993327 (Simulation time: 1 hr 21 min 52 sec) 

ChampSim completed all CPUs

Region of Interest Statistics

CPU 0 cumulative IPC: 0.993327 instructions: 1000000000 cycles: 1006717786
cpu0_DTLB TOTAL     ACCESS:  209945095  HIT:  208188295  MISS:    1756800
cpu0_DTLB LOAD      ACCESS:  165735443  HIT:  164233049  MISS:    1502394
cpu0_DTLB RFO       ACCESS:   44209652  HIT:   43955246  MISS:     254406
cpu0_DTLB PREFETCH  ACCESS:          0  HIT:          0  MISS:          0
cpu0_DTLB WRITEBACK ACCESS:          0  HIT:          0  MISS:          0
cpu0_DTLB TRANSLATION ACCESS:          0  HIT:          0  MISS:          0
cpu0_DTLB PREFETCH  REQUESTED:          0  ISSUED:          0  USEFUL:          0  USELESS:          0
cpu0_DTLB AVERAGE MISS LATENCY: 14.5179 cycles
cpu0_ITLB TOTAL     ACCESS:   88812514  HIT:   88812498  MISS:         16
cpu0_ITLB LOAD      ACCESS:   88812514  HIT:   88812498  MISS:         16
cpu0_ITLB RFO       ACCESS:          0  HIT:          0  MISS:          0
cpu0_ITLB PREFETCH  ACCESS:          0  HIT:          0  MISS:          0
cpu0_ITLB WRITEBACK ACCESS:          0  HIT:          0  MISS:          0
cpu0_ITLB TRANSLATION ACCESS:          0  HIT:          0  MISS:          0
cpu0_ITLB PREFETCH  REQUESTED:          0  ISSUED:          0  USEFUL:          0  USELESS:          0
cpu0_ITLB AVERAGE MISS LATENCY: 217.625 cycles
cpu0_L1I TOTAL     ACCESS:   59273379  HIT:   59258103  MISS:      15276
cpu0_L1I LOAD      ACCESS:   59273379  HIT:   59258103  MISS:      15276
cpu0_L1I RFO       ACCESS:          0  HIT:          0  MISS:          0
cpu0_L1I PREFETCH  ACCESS:          0  HIT:          0  MISS:          0
cpu0_L1I WRITEBACK ACCESS:          0  HIT:          0  MISS:          0
cpu0_L1I TRANSLATION ACCESS:          0  HIT:          0  MISS:          0
cpu0_L1I PREFETCH  REQUESTED:          0  ISSUED:          0  USEFUL:          0  USELESS:          0
cpu0_L1I AVERAGE MISS LATENCY: 29.096 cycles
cpu0_STLB TOTAL     ACCESS:    1756816  HIT:    1455098  MISS:     301718
cpu0_STLB LOAD      ACCESS:    1502410  HIT:    1201883  MISS:     300527
cpu0_STLB RFO       ACCESS:     254406  HIT:     253215  MISS:       1191
cpu0_STLB PREFETCH  ACCESS:          0  HIT:          0  MISS:          0
cpu0_STLB WRITEBACK ACCESS:          0  HIT:          0  MISS:          0
cpu0_STLB TRANSLATION ACCESS:          0  HIT:          0  MISS:          0
cpu0_STLB PREFETCH  REQUESTED:          0  ISSUED:          0  USEFUL:          0  USELESS:          0
cpu0_STLB AVERAGE MISS LATENCY: 32.0589 cycles
cpu0_L1D TOTAL     ACCESS:  430666626  HIT:  427573318  MISS:    3093308
cpu0_L1D LOAD      ACCESS:  177769983  HIT:  176544951  MISS:    1225032
cpu0_L1D RFO       ACCESS:   76843119  HIT:   76326173  MISS:     516946
cpu0_L1D PREFETCH  ACCESS:  175751808  HIT:  174418262  MISS:    1333546
cpu0_L1D WRITEBACK ACCESS:          0  HIT:          0  MISS:          0
cpu0_L1D TRANSLATION ACCESS:     301716  HIT:     283932  MISS:      17784
cpu0_L1D PREFETCH  REQUESTED:  177817589  ISSUED:  175864527  USEFUL:     811709  USELESS:     540660
cpu0_L1D AVERAGE MISS LATENCY: 85.321 cycles
cpu0_L2C TOTAL     ACCESS:    4184695  HIT:    3442653  MISS:     742042
cpu0_L2C LOAD      ACCESS:    1223247  HIT:     863579  MISS:     359668
cpu0_L2C RFO       ACCESS:     513188  HIT:     501122  MISS:      12066
cpu0_L2C PREFETCH  ACCESS:    1446204  HIT:    1078596  MISS:     367608
cpu0_L2C WRITEBACK ACCESS:     984272  HIT:     981866  MISS:       2406
cpu0_L2C TRANSLATION ACCESS:      17784  HIT:      17490  MISS:        294
cpu0_L2C PREFETCH  REQUESTED:      96283  ISSUED:      94561  USEFUL:       4295  USELESS:       3620
cpu0_L2C AVERAGE MISS LATENCY: 303.136 cycles
LLC TOTAL     ACCESS:    1069158  HIT:     420716  MISS:     648442
LLC LOAD      ACCESS:     359668  HIT:      37915  MISS:     321753
LLC RFO       ACCESS:      12064  HIT:      10705  MISS:       1359
LLC PREFETCH  ACCESS:     367606  HIT:      44749  MISS:     322857
LLC WRITEBACK ACCESS:     329526  HIT:     327098  MISS:       2428
LLC TRANSLATION ACCESS:        294  HIT:        249  MISS:         45
LLC PREFETCH  REQUESTED:          0  ISSUED:          0  USEFUL:          0  USELESS:          0
LLC AVERAGE MISS LATENCY: 316.096 cycles

DRAM Statistics
 CHANNEL 0
 RQ ROW_BUFFER_HIT:        378  ROW_BUFFER_MISS:     645635
 DBUS AVG_CONGESTED_CYCLE:    3.51544
 WQ ROW_BUFFER_HIT:      42763  ROW_BUFFER_MISS:     239350  FULL:          0


CPU 0 Branch Prediction Accuracy: 90.3752% MPKI: 21.3013 Average ROB Occupancy at Mispredict: 24.5809
Branch type MPKI
BRANCH_DIRECT_JUMP: 0.000132
BRANCH_INDIRECT: 0.948516
BRANCH_CONDITIONAL: 19.9207
BRANCH_DIRECT_CALL: 6.1e-05
BRANCH_INDIRECT_CALL: 0.431806
BRANCH_RETURN: 6.6e-05

