
*** ChampSim Multicore Out-of-Order Simulator ***

Warmup Instructions: 200000000
Simulation Instructions: 1000000000
Number of CPUs: 1
Off-chip DRAM Size: 4 GiB Channels: 1 Width: 64-bit Data Rate: 3200 MT/s

VirtualMemory physical capacity: 8588881920 num_ppages: 2096895
VirtualMemory page size: 4096 log2_page_size: 12

CPU 0 runs tracer/pin/traces/pr-urand-603B.champsim.xz
Basic BTB sets: 1024 ways: 8 indirect buffer size: 4096 RAS size: 64
cpu0_L1D next line prefetcher
cpu0_L2C IP-based stride prefetcher
WARNING: The extended signature CACHE::prefetch_line(ip, base_addr, pf_addr, fill_this_level, prefetch_metadata) is deprecated.
WARNING: Use CACHE::prefetch_line(pf_addr, fill_this_level, prefetch_metadata) instead.
Heartbeat CPU 0 instructions: 10000003 cycles: 3870519 heartbeat IPC: 2.58363 cumulative IPC: 2.58363 (Simulation time: 0 hr 0 min 42 sec) 
Heartbeat CPU 0 instructions: 20000000 cycles: 7741064 heartbeat IPC: 2.58361 cumulative IPC: 2.58362 (Simulation time: 0 hr 1 min 25 sec) 
Heartbeat CPU 0 instructions: 30000002 cycles: 11611415 heartbeat IPC: 2.58375 cumulative IPC: 2.58366 (Simulation time: 0 hr 2 min 8 sec) 
Heartbeat CPU 0 instructions: 40000004 cycles: 15481900 heartbeat IPC: 2.58366 cumulative IPC: 2.58366 (Simulation time: 0 hr 2 min 50 sec) 
Heartbeat CPU 0 instructions: 50000000 cycles: 19352488 heartbeat IPC: 2.58359 cumulative IPC: 2.58365 (Simulation time: 0 hr 3 min 33 sec) 
Heartbeat CPU 0 instructions: 60000002 cycles: 23222942 heartbeat IPC: 2.58368 cumulative IPC: 2.58365 (Simulation time: 0 hr 4 min 16 sec) 
Heartbeat CPU 0 instructions: 70000004 cycles: 27093273 heartbeat IPC: 2.58376 cumulative IPC: 2.58367 (Simulation time: 0 hr 4 min 59 sec) 
Heartbeat CPU 0 instructions: 80000004 cycles: 30963572 heartbeat IPC: 2.58378 cumulative IPC: 2.58368 (Simulation time: 0 hr 5 min 42 sec) 
Heartbeat CPU 0 instructions: 90000001 cycles: 34833855 heartbeat IPC: 2.58379 cumulative IPC: 2.58369 (Simulation time: 0 hr 6 min 26 sec) 
Heartbeat CPU 0 instructions: 100000001 cycles: 38704264 heartbeat IPC: 2.58371 cumulative IPC: 2.58369 (Simulation time: 0 hr 7 min 14 sec) 
Heartbeat CPU 0 instructions: 110000004 cycles: 42574743 heartbeat IPC: 2.58366 cumulative IPC: 2.58369 (Simulation time: 0 hr 8 min 0 sec) 
Heartbeat CPU 0 instructions: 120000002 cycles: 46445200 heartbeat IPC: 2.58367 cumulative IPC: 2.58369 (Simulation time: 0 hr 8 min 45 sec) 
Heartbeat CPU 0 instructions: 130000004 cycles: 50315873 heartbeat IPC: 2.58353 cumulative IPC: 2.58368 (Simulation time: 0 hr 9 min 32 sec) 
Heartbeat CPU 0 instructions: 140000002 cycles: 54186408 heartbeat IPC: 2.58362 cumulative IPC: 2.58367 (Simulation time: 0 hr 10 min 22 sec) 
Heartbeat CPU 0 instructions: 150000002 cycles: 58056741 heartbeat IPC: 2.58376 cumulative IPC: 2.58368 (Simulation time: 0 hr 11 min 11 sec) 
Heartbeat CPU 0 instructions: 160000004 cycles: 61927163 heartbeat IPC: 2.5837 cumulative IPC: 2.58368 (Simulation time: 0 hr 12 min 2 sec) 
Heartbeat CPU 0 instructions: 170000000 cycles: 65797814 heartbeat IPC: 2.58354 cumulative IPC: 2.58367 (Simulation time: 0 hr 12 min 53 sec) 
Heartbeat CPU 0 instructions: 180000001 cycles: 69668335 heartbeat IPC: 2.58363 cumulative IPC: 2.58367 (Simulation time: 0 hr 13 min 44 sec) 
Heartbeat CPU 0 instructions: 190000003 cycles: 73538732 heartbeat IPC: 2.58371 cumulative IPC: 2.58367 (Simulation time: 0 hr 14 min 35 sec) 
Heartbeat CPU 0 instructions: 200000004 cycles: 77409373 heartbeat IPC: 2.58355 cumulative IPC: 2.58367 (Simulation time: 0 hr 15 min 26 sec) 

Warmup complete CPU 0 instructions: 200000004 cycles: 77409373 (Simulation time: 0 hr 15 min 26 sec) 

Heartbeat CPU 0 instructions: 210000001 cycles: 711648536 heartbeat IPC: 0.0157669 cumulative IPC: 0.0157669 (Simulation time: 0 hr 57 min 57 sec) 
Heartbeat CPU 0 instructions: 220000000 cycles: 1345728996 heartbeat IPC: 0.0157709 cumulative IPC: 0.0157689 (Simulation time: 1 hr 42 min 52 sec) 
Heartbeat CPU 0 instructions: 230000001 cycles: 1979937685 heartbeat IPC: 0.0157677 cumulative IPC: 0.0157685 (Simulation time: 2 hr 28 min 8 sec) 
Heartbeat CPU 0 instructions: 240000003 cycles: 2614273963 heartbeat IPC: 0.0157645 cumulative IPC: 0.0157675 (Simulation time: 3 hr 15 min 25 sec) 
Heartbeat CPU 0 instructions: 250000003 cycles: 3248446320 heartbeat IPC: 0.0157686 cumulative IPC: 0.0157677 (Simulation time: 3 hr 59 min 20 sec) 
Heartbeat CPU 0 instructions: 260000002 cycles: 3882541393 heartbeat IPC: 0.0157705 cumulative IPC: 0.0157682 (Simulation time: 4 hr 35 min 42 sec) 
Heartbeat CPU 0 instructions: 270000003 cycles: 4516718968 heartbeat IPC: 0.0157685 cumulative IPC: 0.0157682 (Simulation time: 5 hr 7 min 11 sec) 
Heartbeat CPU 0 instructions: 280000002 cycles: 5150925891 heartbeat IPC: 0.0157677 cumulative IPC: 0.0157682 (Simulation time: 5 hr 35 min 7 sec) 
Heartbeat CPU 0 instructions: 290000003 cycles: 5784987596 heartbeat IPC: 0.0157713 cumulative IPC: 0.0157685 (Simulation time: 6 hr 17 min 25 sec) 
Heartbeat CPU 0 instructions: 300000002 cycles: 6419125281 heartbeat IPC: 0.0157694 cumulative IPC: 0.0157686 (Simulation time: 7 hr 4 min 36 sec) 
Heartbeat CPU 0 instructions: 310000000 cycles: 7053321620 heartbeat IPC: 0.015768 cumulative IPC: 0.0157685 (Simulation time: 7 hr 42 min 23 sec) 
Heartbeat CPU 0 instructions: 320000003 cycles: 7687460181 heartbeat IPC: 0.0157694 cumulative IPC: 0.0157686 (Simulation time: 8 hr 21 min 12 sec) 
Heartbeat CPU 0 instructions: 330000002 cycles: 8321585391 heartbeat IPC: 0.0157698 cumulative IPC: 0.0157687 (Simulation time: 8 hr 53 min 54 sec) 
Heartbeat CPU 0 instructions: 340000000 cycles: 8955772868 heartbeat IPC: 0.0157682 cumulative IPC: 0.0157687 (Simulation time: 9 hr 21 min 35 sec) 
Heartbeat CPU 0 instructions: 350000003 cycles: 9589899769 heartbeat IPC: 0.0157697 cumulative IPC: 0.0157687 (Simulation time: 9 hr 49 min 15 sec) 
Heartbeat CPU 0 instructions: 360000000 cycles: 10224148154 heartbeat IPC: 0.0157667 cumulative IPC: 0.0157686 (Simulation time: 10 hr 16 min 56 sec) 
Heartbeat CPU 0 instructions: 370000003 cycles: 10858289346 heartbeat IPC: 0.0157694 cumulative IPC: 0.0157687 (Simulation time: 10 hr 44 min 37 sec) 
Heartbeat CPU 0 instructions: 380000003 cycles: 11492414593 heartbeat IPC: 0.0157698 cumulative IPC: 0.0157687 (Simulation time: 11 hr 12 min 17 sec) 
Heartbeat CPU 0 instructions: 390000002 cycles: 12126458004 heartbeat IPC: 0.0157718 cumulative IPC: 0.0157689 (Simulation time: 11 hr 39 min 57 sec) 
Heartbeat CPU 0 instructions: 400000002 cycles: 12760676005 heartbeat IPC: 0.0157674 cumulative IPC: 0.0157688 (Simulation time: 12 hr 7 min 36 sec) 
Heartbeat CPU 0 instructions: 410000004 cycles: 13394861716 heartbeat IPC: 0.0157683 cumulative IPC: 0.0157688 (Simulation time: 12 hr 35 min 16 sec) 
Heartbeat CPU 0 instructions: 420000003 cycles: 14029240804 heartbeat IPC: 0.0157634 cumulative IPC: 0.0157685 (Simulation time: 13 hr 2 min 56 sec) 
Heartbeat CPU 0 instructions: 430000004 cycles: 14663303654 heartbeat IPC: 0.0157713 cumulative IPC: 0.0157687 (Simulation time: 13 hr 30 min 34 sec) 
Heartbeat CPU 0 instructions: 440000004 cycles: 15297505895 heartbeat IPC: 0.0157678 cumulative IPC: 0.0157686 (Simulation time: 13 hr 58 min 13 sec) 
Heartbeat CPU 0 instructions: 450000003 cycles: 15931928814 heartbeat IPC: 0.0157624 cumulative IPC: 0.0157684 (Simulation time: 14 hr 25 min 52 sec) 
Heartbeat CPU 0 instructions: 460000004 cycles: 16566172103 heartbeat IPC: 0.0157668 cumulative IPC: 0.0157683 (Simulation time: 14 hr 53 min 30 sec) 
Heartbeat CPU 0 instructions: 470000003 cycles: 17200423005 heartbeat IPC: 0.0157666 cumulative IPC: 0.0157683 (Simulation time: 15 hr 21 min 9 sec) 
Heartbeat CPU 0 instructions: 480000002 cycles: 17834632000 heartbeat IPC: 0.0157677 cumulative IPC: 0.0157682 (Simulation time: 15 hr 48 min 48 sec) 
Heartbeat CPU 0 instructions: 490000004 cycles: 18468849316 heartbeat IPC: 0.0157675 cumulative IPC: 0.0157682 (Simulation time: 16 hr 16 min 27 sec) 
Heartbeat CPU 0 instructions: 500000003 cycles: 19102961776 heartbeat IPC: 0.0157701 cumulative IPC: 0.0157683 (Simulation time: 16 hr 44 min 5 sec) 
Heartbeat CPU 0 instructions: 510000002 cycles: 19737143590 heartbeat IPC: 0.0157683 cumulative IPC: 0.0157683 (Simulation time: 17 hr 11 min 43 sec) 
Heartbeat CPU 0 instructions: 520000003 cycles: 20371286636 heartbeat IPC: 0.0157693 cumulative IPC: 0.0157683 (Simulation time: 17 hr 39 min 22 sec) 
Heartbeat CPU 0 instructions: 530000004 cycles: 21005409635 heartbeat IPC: 0.0157698 cumulative IPC: 0.0157683 (Simulation time: 18 hr 7 min 1 sec) 
Heartbeat CPU 0 instructions: 540000004 cycles: 21639540096 heartbeat IPC: 0.0157696 cumulative IPC: 0.0157684 (Simulation time: 18 hr 34 min 40 sec) 
Heartbeat CPU 0 instructions: 550000002 cycles: 22273812845 heartbeat IPC: 0.0157661 cumulative IPC: 0.0157683 (Simulation time: 19 hr 2 min 20 sec) 
Heartbeat CPU 0 instructions: 560000000 cycles: 22907992474 heartbeat IPC: 0.0157684 cumulative IPC: 0.0157683 (Simulation time: 19 hr 29 min 59 sec) 
Heartbeat CPU 0 instructions: 570000002 cycles: 23542270889 heartbeat IPC: 0.015766 cumulative IPC: 0.0157683 (Simulation time: 19 hr 57 min 39 sec) 
Heartbeat CPU 0 instructions: 580000004 cycles: 24176429745 heartbeat IPC: 0.0157689 cumulative IPC: 0.0157683 (Simulation time: 20 hr 25 min 18 sec) 
Heartbeat CPU 0 instructions: 590000004 cycles: 24810623101 heartbeat IPC: 0.0157681 cumulative IPC: 0.0157683 (Simulation time: 20 hr 52 min 56 sec) 
Heartbeat CPU 0 instructions: 600000000 cycles: 25444961089 heartbeat IPC: 0.0157645 cumulative IPC: 0.0157682 (Simulation time: 21 hr 20 min 34 sec) 
Heartbeat CPU 0 instructions: 610000003 cycles: 26079125036 heartbeat IPC: 0.0157688 cumulative IPC: 0.0157682 (Simulation time: 21 hr 48 min 13 sec) 
Heartbeat CPU 0 instructions: 620000003 cycles: 26713259311 heartbeat IPC: 0.0157695 cumulative IPC: 0.0157682 (Simulation time: 22 hr 15 min 51 sec) 
Heartbeat CPU 0 instructions: 630000002 cycles: 27347512536 heartbeat IPC: 0.0157666 cumulative IPC: 0.0157682 (Simulation time: 22 hr 43 min 29 sec) 
Heartbeat CPU 0 instructions: 640000004 cycles: 27981632121 heartbeat IPC: 0.0157699 cumulative IPC: 0.0157682 (Simulation time: 23 hr 11 min 7 sec) 
Heartbeat CPU 0 instructions: 650000002 cycles: 28615682661 heartbeat IPC: 0.0157716 cumulative IPC: 0.0157683 (Simulation time: 23 hr 38 min 44 sec) 
Heartbeat CPU 0 instructions: 660000001 cycles: 29249877079 heartbeat IPC: 0.015768 cumulative IPC: 0.0157683 (Simulation time: 24 hr 6 min 23 sec) 
Heartbeat CPU 0 instructions: 670000001 cycles: 29884050720 heartbeat IPC: 0.0157686 cumulative IPC: 0.0157683 (Simulation time: 24 hr 34 min 1 sec) 
Heartbeat CPU 0 instructions: 680000000 cycles: 30518302415 heartbeat IPC: 0.0157666 cumulative IPC: 0.0157683 (Simulation time: 25 hr 1 min 39 sec) 
Heartbeat CPU 0 instructions: 690000004 cycles: 31152503027 heartbeat IPC: 0.0157679 cumulative IPC: 0.0157683 (Simulation time: 25 hr 29 min 18 sec) 
Heartbeat CPU 0 instructions: 700000004 cycles: 31786658853 heartbeat IPC: 0.015769 cumulative IPC: 0.0157683 (Simulation time: 25 hr 56 min 56 sec) 
