
*** ChampSim Multicore Out-of-Order Simulator ***

Warmup Instructions: 1000000
Simulation Instructions: 1000000000
Number of CPUs: 1
Off-chip DRAM Size: 4 GiB Channels: 1 Width: 64-bit Data Rate: 3200 MT/s

VirtualMemory physical capacity: 8588881920 num_ppages: 2096895
VirtualMemory page size: 4096 log2_page_size: 12

CPU 0 runs tracer/pin/traces/spec2k6/481.wrf-196B.champsimtrace.xz
Basic BTB sets: 1024 ways: 8 indirect buffer size: 4096 RAS size: 64
cpu0_L1D next line prefetcher
cpu0_L2C IP-based stride prefetcher
WARNING: The extended signature CACHE::prefetch_line(ip, base_addr, pf_addr, fill_this_level, prefetch_metadata) is deprecated.
WARNING: Use CACHE::prefetch_line(pf_addr, fill_this_level, prefetch_metadata) instead.

Warmup complete CPU 0 instructions: 1000002 cycles: 314000 (Simulation time: 0 hr 0 min 4 sec) 

Heartbeat CPU 0 instructions: 10000002 cycles: 4561972 heartbeat IPC: 2.19203 cumulative IPC: 2.11866 (Simulation time: 0 hr 0 min 53 sec) 
Heartbeat CPU 0 instructions: 20000001 cycles: 9745142 heartbeat IPC: 1.92932 cumulative IPC: 2.0146 (Simulation time: 0 hr 1 min 50 sec) 
Heartbeat CPU 0 instructions: 30000000 cycles: 18565051 heartbeat IPC: 1.1338 cumulative IPC: 1.58895 (Simulation time: 0 hr 2 min 59 sec) 
Heartbeat CPU 0 instructions: 40000001 cycles: 27222217 heartbeat IPC: 1.15511 cumulative IPC: 1.44937 (Simulation time: 0 hr 4 min 7 sec) 
Heartbeat CPU 0 instructions: 50000000 cycles: 34297449 heartbeat IPC: 1.41338 cumulative IPC: 1.44188 (Simulation time: 0 hr 5 min 9 sec) 
Heartbeat CPU 0 instructions: 60000003 cycles: 40927856 heartbeat IPC: 1.5082 cumulative IPC: 1.45271 (Simulation time: 0 hr 6 min 11 sec) 
Heartbeat CPU 0 instructions: 70000003 cycles: 47586693 heartbeat IPC: 1.50176 cumulative IPC: 1.45962 (Simulation time: 0 hr 7 min 11 sec) 
Heartbeat CPU 0 instructions: 80000001 cycles: 53920389 heartbeat IPC: 1.57886 cumulative IPC: 1.4737 (Simulation time: 0 hr 8 min 7 sec) 
Heartbeat CPU 0 instructions: 90000002 cycles: 60225447 heartbeat IPC: 1.58603 cumulative IPC: 1.48553 (Simulation time: 0 hr 9 min 4 sec) 
Heartbeat CPU 0 instructions: 100000004 cycles: 67379122 heartbeat IPC: 1.39788 cumulative IPC: 1.47618 (Simulation time: 0 hr 10 min 5 sec) 
Heartbeat CPU 0 instructions: 110000000 cycles: 75331886 heartbeat IPC: 1.25742 cumulative IPC: 1.45299 (Simulation time: 0 hr 11 min 8 sec) 
Heartbeat CPU 0 instructions: 120000003 cycles: 82931867 heartbeat IPC: 1.31579 cumulative IPC: 1.44037 (Simulation time: 0 hr 12 min 10 sec) 
Heartbeat CPU 0 instructions: 130000003 cycles: 89243634 heartbeat IPC: 1.58434 cumulative IPC: 1.45059 (Simulation time: 0 hr 13 min 8 sec) 
Heartbeat CPU 0 instructions: 140000003 cycles: 95661544 heartbeat IPC: 1.55814 cumulative IPC: 1.45782 (Simulation time: 0 hr 14 min 4 sec) 
Heartbeat CPU 0 instructions: 150000001 cycles: 102870771 heartbeat IPC: 1.38711 cumulative IPC: 1.45285 (Simulation time: 0 hr 15 min 6 sec) 
Heartbeat CPU 0 instructions: 160000001 cycles: 110524024 heartbeat IPC: 1.30663 cumulative IPC: 1.4427 (Simulation time: 0 hr 16 min 8 sec) 
Heartbeat CPU 0 instructions: 170000002 cycles: 118287278 heartbeat IPC: 1.28812 cumulative IPC: 1.43253 (Simulation time: 0 hr 17 min 13 sec) 
Heartbeat CPU 0 instructions: 180000003 cycles: 125870099 heartbeat IPC: 1.31877 cumulative IPC: 1.42566 (Simulation time: 0 hr 18 min 14 sec) 
Heartbeat CPU 0 instructions: 190000003 cycles: 133372221 heartbeat IPC: 1.33296 cumulative IPC: 1.42043 (Simulation time: 0 hr 19 min 13 sec) 
Heartbeat CPU 0 instructions: 200000002 cycles: 140299668 heartbeat IPC: 1.44353 cumulative IPC: 1.42157 (Simulation time: 0 hr 20 min 9 sec) 
Heartbeat CPU 0 instructions: 210000004 cycles: 146680970 heartbeat IPC: 1.56708 cumulative IPC: 1.42792 (Simulation time: 0 hr 21 min 4 sec) 
Heartbeat CPU 0 instructions: 220000000 cycles: 153208504 heartbeat IPC: 1.53197 cumulative IPC: 1.43236 (Simulation time: 0 hr 21 min 59 sec) 
Heartbeat CPU 0 instructions: 230000004 cycles: 160648516 heartbeat IPC: 1.34408 cumulative IPC: 1.42826 (Simulation time: 0 hr 23 min 1 sec) 
Heartbeat CPU 0 instructions: 240000001 cycles: 167880340 heartbeat IPC: 1.38278 cumulative IPC: 1.4263 (Simulation time: 0 hr 24 min 0 sec) 
Heartbeat CPU 0 instructions: 250000002 cycles: 175790234 heartbeat IPC: 1.26424 cumulative IPC: 1.419 (Simulation time: 0 hr 25 min 1 sec) 
Heartbeat CPU 0 instructions: 260000003 cycles: 184106269 heartbeat IPC: 1.2025 cumulative IPC: 1.4092 (Simulation time: 0 hr 26 min 3 sec) 
Heartbeat CPU 0 instructions: 270000002 cycles: 194488605 heartbeat IPC: 0.963174 cumulative IPC: 1.38535 (Simulation time: 0 hr 27 min 21 sec) 
Heartbeat CPU 0 instructions: 280000001 cycles: 206085465 heartbeat IPC: 0.862302 cumulative IPC: 1.35587 (Simulation time: 0 hr 28 min 49 sec) 
Heartbeat CPU 0 instructions: 290000004 cycles: 220801096 heartbeat IPC: 0.67955 cumulative IPC: 1.31073 (Simulation time: 0 hr 30 min 38 sec) 
Heartbeat CPU 0 instructions: 300000001 cycles: 228185753 heartbeat IPC: 1.35416 cumulative IPC: 1.31214 (Simulation time: 0 hr 31 min 54 sec) 
Heartbeat CPU 0 instructions: 310000003 cycles: 235411905 heartbeat IPC: 1.38386 cumulative IPC: 1.31435 (Simulation time: 0 hr 33 min 12 sec) 
Heartbeat CPU 0 instructions: 320000001 cycles: 241325545 heartbeat IPC: 1.69101 cumulative IPC: 1.32359 (Simulation time: 0 hr 34 min 24 sec) 
Heartbeat CPU 0 instructions: 330000003 cycles: 246762485 heartbeat IPC: 1.83927 cumulative IPC: 1.33496 (Simulation time: 0 hr 35 min 31 sec) 
Heartbeat CPU 0 instructions: 340000002 cycles: 252210960 heartbeat IPC: 1.83538 cumulative IPC: 1.34579 (Simulation time: 0 hr 36 min 40 sec) 
Heartbeat CPU 0 instructions: 350000004 cycles: 257699155 heartbeat IPC: 1.82209 cumulative IPC: 1.35594 (Simulation time: 0 hr 37 min 48 sec) 
Heartbeat CPU 0 instructions: 360000000 cycles: 265191801 heartbeat IPC: 1.33464 cumulative IPC: 1.35534 (Simulation time: 0 hr 39 min 2 sec) 
Heartbeat CPU 0 instructions: 370000001 cycles: 274148744 heartbeat IPC: 1.11645 cumulative IPC: 1.34753 (Simulation time: 0 hr 40 min 23 sec) 
Heartbeat CPU 0 instructions: 380000001 cycles: 282568150 heartbeat IPC: 1.18773 cumulative IPC: 1.34276 (Simulation time: 0 hr 41 min 43 sec) 
Heartbeat CPU 0 instructions: 390000001 cycles: 290983633 heartbeat IPC: 1.18829 cumulative IPC: 1.33829 (Simulation time: 0 hr 43 min 0 sec) 
Heartbeat CPU 0 instructions: 400000000 cycles: 299276145 heartbeat IPC: 1.20591 cumulative IPC: 1.33462 (Simulation time: 0 hr 44 min 18 sec) 
Heartbeat CPU 0 instructions: 410000004 cycles: 307374408 heartbeat IPC: 1.23483 cumulative IPC: 1.33199 (Simulation time: 0 hr 45 min 37 sec) 
Heartbeat CPU 0 instructions: 420000004 cycles: 315657723 heartbeat IPC: 1.20725 cumulative IPC: 1.32871 (Simulation time: 0 hr 47 min 0 sec) 
Heartbeat CPU 0 instructions: 430000001 cycles: 323940088 heartbeat IPC: 1.20738 cumulative IPC: 1.3256 (Simulation time: 0 hr 48 min 26 sec) 
Heartbeat CPU 0 instructions: 440000000 cycles: 332766675 heartbeat IPC: 1.13294 cumulative IPC: 1.32049 (Simulation time: 0 hr 49 min 49 sec) 
Heartbeat CPU 0 instructions: 450000002 cycles: 345276221 heartbeat IPC: 0.79939 cumulative IPC: 1.30159 (Simulation time: 0 hr 51 min 25 sec) 
Heartbeat CPU 0 instructions: 460000004 cycles: 351592073 heartbeat IPC: 1.58332 cumulative IPC: 1.30666 (Simulation time: 0 hr 52 min 41 sec) 
Heartbeat CPU 0 instructions: 470000000 cycles: 357801463 heartbeat IPC: 1.61046 cumulative IPC: 1.31193 (Simulation time: 0 hr 53 min 58 sec) 
Heartbeat CPU 0 instructions: 480000001 cycles: 364042673 heartbeat IPC: 1.60225 cumulative IPC: 1.31692 (Simulation time: 0 hr 55 min 15 sec) 
Heartbeat CPU 0 instructions: 490000004 cycles: 370563939 heartbeat IPC: 1.53345 cumulative IPC: 1.32073 (Simulation time: 0 hr 56 min 22 sec) 
Heartbeat CPU 0 instructions: 500000002 cycles: 377434843 heartbeat IPC: 1.45541 cumulative IPC: 1.32318 (Simulation time: 0 hr 57 min 29 sec) 
Heartbeat CPU 0 instructions: 510000004 cycles: 386411760 heartbeat IPC: 1.11397 cumulative IPC: 1.31832 (Simulation time: 0 hr 58 min 47 sec) 
Heartbeat CPU 0 instructions: 520000003 cycles: 396608413 heartbeat IPC: 0.980714 cumulative IPC: 1.30963 (Simulation time: 1 hr 0 min 10 sec) 
Heartbeat CPU 0 instructions: 530000002 cycles: 408362610 heartbeat IPC: 0.85076 cumulative IPC: 1.29641 (Simulation time: 1 hr 1 min 39 sec) 
Heartbeat CPU 0 instructions: 540000003 cycles: 417716766 heartbeat IPC: 1.06904 cumulative IPC: 1.29132 (Simulation time: 1 hr 3 min 7 sec) 
Heartbeat CPU 0 instructions: 550000000 cycles: 428135754 heartbeat IPC: 0.959786 cumulative IPC: 1.28324 (Simulation time: 1 hr 4 min 34 sec) 
Heartbeat CPU 0 instructions: 560000004 cycles: 439286179 heartbeat IPC: 0.896827 cumulative IPC: 1.27343 (Simulation time: 1 hr 6 min 5 sec) 
Heartbeat CPU 0 instructions: 570000000 cycles: 445593452 heartbeat IPC: 1.58547 cumulative IPC: 1.27785 (Simulation time: 1 hr 7 min 7 sec) 
Heartbeat CPU 0 instructions: 580000003 cycles: 451866667 heartbeat IPC: 1.59408 cumulative IPC: 1.28224 (Simulation time: 1 hr 8 min 7 sec) 
Heartbeat CPU 0 instructions: 590000002 cycles: 459426123 heartbeat IPC: 1.32285 cumulative IPC: 1.28291 (Simulation time: 1 hr 9 min 13 sec) 
Heartbeat CPU 0 instructions: 600000003 cycles: 469736570 heartbeat IPC: 0.96989 cumulative IPC: 1.27604 (Simulation time: 1 hr 10 min 35 sec) 
Heartbeat CPU 0 instructions: 610000002 cycles: 482035246 heartbeat IPC: 0.813096 cumulative IPC: 1.26422 (Simulation time: 1 hr 12 min 6 sec) 
Heartbeat CPU 0 instructions: 620000001 cycles: 494467915 heartbeat IPC: 0.804332 cumulative IPC: 1.25265 (Simulation time: 1 hr 13 min 44 sec) 
Heartbeat CPU 0 instructions: 630000000 cycles: 503369808 heartbeat IPC: 1.12336 cumulative IPC: 1.25036 (Simulation time: 1 hr 15 min 7 sec) 
Heartbeat CPU 0 instructions: 640000001 cycles: 525679995 heartbeat IPC: 0.448226 cumulative IPC: 1.21629 (Simulation time: 1 hr 17 min 29 sec) 
Heartbeat CPU 0 instructions: 650000000 cycles: 547533030 heartbeat IPC: 0.457602 cumulative IPC: 1.186 (Simulation time: 1 hr 19 min 57 sec) 
Heartbeat CPU 0 instructions: 660000001 cycles: 569974774 heartbeat IPC: 0.445598 cumulative IPC: 1.15683 (Simulation time: 1 hr 22 min 25 sec) 
Heartbeat CPU 0 instructions: 670000002 cycles: 605812355 heartbeat IPC: 0.279037 cumulative IPC: 1.10487 (Simulation time: 1 hr 26 min 15 sec) 
Heartbeat CPU 0 instructions: 680000000 cycles: 627048873 heartbeat IPC: 0.470887 cumulative IPC: 1.08339 (Simulation time: 1 hr 28 min 29 sec) 
Heartbeat CPU 0 instructions: 690000003 cycles: 642263762 heartbeat IPC: 0.657251 cumulative IPC: 1.07329 (Simulation time: 1 hr 30 min 16 sec) 
Heartbeat CPU 0 instructions: 700000004 cycles: 656348013 heartbeat IPC: 0.710013 cumulative IPC: 1.06549 (Simulation time: 1 hr 31 min 53 sec) 
Heartbeat CPU 0 instructions: 710000001 cycles: 666480722 heartbeat IPC: 0.986903 cumulative IPC: 1.0643 (Simulation time: 1 hr 33 min 12 sec) 
Heartbeat CPU 0 instructions: 720000000 cycles: 680182434 heartbeat IPC: 0.729836 cumulative IPC: 1.05756 (Simulation time: 1 hr 34 min 51 sec) 
Heartbeat CPU 0 instructions: 730000002 cycles: 687870657 heartbeat IPC: 1.30069 cumulative IPC: 1.06028 (Simulation time: 1 hr 36 min 9 sec) 
Heartbeat CPU 0 instructions: 740000002 cycles: 694746794 heartbeat IPC: 1.4543 cumulative IPC: 1.06418 (Simulation time: 1 hr 37 min 23 sec) 
Heartbeat CPU 0 instructions: 750000003 cycles: 701504074 heartbeat IPC: 1.47989 cumulative IPC: 1.06818 (Simulation time: 1 hr 38 min 37 sec) 
Heartbeat CPU 0 instructions: 760000004 cycles: 708307219 heartbeat IPC: 1.46991 cumulative IPC: 1.07204 (Simulation time: 1 hr 39 min 51 sec) 
Heartbeat CPU 0 instructions: 770000001 cycles: 715055752 heartbeat IPC: 1.4818 cumulative IPC: 1.07591 (Simulation time: 1 hr 41 min 4 sec) 
Heartbeat CPU 0 instructions: 780000003 cycles: 722267891 heartbeat IPC: 1.38655 cumulative IPC: 1.07902 (Simulation time: 1 hr 42 min 16 sec) 
Heartbeat CPU 0 instructions: 790000001 cycles: 730215019 heartbeat IPC: 1.25832 cumulative IPC: 1.08097 (Simulation time: 1 hr 43 min 31 sec) 
Heartbeat CPU 0 instructions: 800000001 cycles: 737703403 heartbeat IPC: 1.3354 cumulative IPC: 1.08355 (Simulation time: 1 hr 44 min 39 sec) 
Heartbeat CPU 0 instructions: 810000000 cycles: 745106196 heartbeat IPC: 1.35084 cumulative IPC: 1.08621 (Simulation time: 1 hr 45 min 50 sec) 
Heartbeat CPU 0 instructions: 820000000 cycles: 752677102 heartbeat IPC: 1.32085 cumulative IPC: 1.08857 (Simulation time: 1 hr 47 min 1 sec) 
Heartbeat CPU 0 instructions: 830000000 cycles: 761432280 heartbeat IPC: 1.14218 cumulative IPC: 1.08919 (Simulation time: 1 hr 48 min 24 sec) 
Heartbeat CPU 0 instructions: 840000002 cycles: 768753451 heartbeat IPC: 1.3659 cumulative IPC: 1.09182 (Simulation time: 1 hr 49 min 41 sec) 
Heartbeat CPU 0 instructions: 850000003 cycles: 776104207 heartbeat IPC: 1.3604 cumulative IPC: 1.09437 (Simulation time: 1 hr 50 min 56 sec) 
Heartbeat CPU 0 instructions: 860000003 cycles: 788068987 heartbeat IPC: 0.835786 cumulative IPC: 1.09044 (Simulation time: 1 hr 52 min 32 sec) 
Heartbeat CPU 0 instructions: 870000000 cycles: 802212123 heartbeat IPC: 0.707057 cumulative IPC: 1.08368 (Simulation time: 1 hr 54 min 11 sec) 
Heartbeat CPU 0 instructions: 880000001 cycles: 810133363 heartbeat IPC: 1.26243 cumulative IPC: 1.08543 (Simulation time: 1 hr 55 min 22 sec) 
Heartbeat CPU 0 instructions: 890000003 cycles: 822243840 heartbeat IPC: 0.825731 cumulative IPC: 1.0816 (Simulation time: 1 hr 56 min 55 sec) 
Heartbeat CPU 0 instructions: 900000004 cycles: 855562473 heartbeat IPC: 0.300132 cumulative IPC: 1.05116 (Simulation time: 2 hr 0 min 12 sec) 
Heartbeat CPU 0 instructions: 910000002 cycles: 871602841 heartbeat IPC: 0.623427 cumulative IPC: 1.04328 (Simulation time: 2 hr 1 min 58 sec) 
Heartbeat CPU 0 instructions: 920000000 cycles: 880117240 heartbeat IPC: 1.17448 cumulative IPC: 1.04455 (Simulation time: 2 hr 3 min 12 sec) 
Heartbeat CPU 0 instructions: 930000002 cycles: 888231319 heartbeat IPC: 1.23243 cumulative IPC: 1.04627 (Simulation time: 2 hr 4 min 26 sec) 
Heartbeat CPU 0 instructions: 940000003 cycles: 896460574 heartbeat IPC: 1.21518 cumulative IPC: 1.04782 (Simulation time: 2 hr 5 min 40 sec) 
Heartbeat CPU 0 instructions: 950000000 cycles: 904711494 heartbeat IPC: 1.21199 cumulative IPC: 1.04932 (Simulation time: 2 hr 6 min 54 sec) 
Heartbeat CPU 0 instructions: 960000000 cycles: 912908783 heartbeat IPC: 1.21992 cumulative IPC: 1.05085 (Simulation time: 2 hr 8 min 8 sec) 
Heartbeat CPU 0 instructions: 970000000 cycles: 921050410 heartbeat IPC: 1.22826 cumulative IPC: 1.05242 (Simulation time: 2 hr 9 min 22 sec) 
Heartbeat CPU 0 instructions: 980000000 cycles: 929182112 heartbeat IPC: 1.22975 cumulative IPC: 1.05397 (Simulation time: 2 hr 10 min 35 sec) 
Heartbeat CPU 0 instructions: 990000000 cycles: 937462892 heartbeat IPC: 1.20762 cumulative IPC: 1.05533 (Simulation time: 2 hr 11 min 47 sec) 
Heartbeat CPU 0 instructions: 1000000001 cycles: 953140556 heartbeat IPC: 0.63785 cumulative IPC: 1.04846 (Simulation time: 2 hr 13 min 32 sec) 
Finished CPU 0 instructions: 1000000000 cycles: 954359430 cumulative IPC: 1.04782 (Simulation time: 2 hr 13 min 41 sec) 

ChampSim completed all CPUs

Region of Interest Statistics

CPU 0 cumulative IPC: 1.04782 instructions: 1000000000 cycles: 954359430
cpu0_DTLB TOTAL     ACCESS:  277173615  HIT:  276951443  MISS:     222172
cpu0_DTLB LOAD      ACCESS:  243034822  HIT:  242858220  MISS:     176602
cpu0_DTLB RFO       ACCESS:   34138793  HIT:   34093223  MISS:      45570
cpu0_DTLB PREFETCH  ACCESS:          0  HIT:          0  MISS:          0
cpu0_DTLB WRITEBACK ACCESS:          0  HIT:          0  MISS:          0
cpu0_DTLB TRANSLATION ACCESS:          0  HIT:          0  MISS:          0
cpu0_DTLB PREFETCH  REQUESTED:          0  ISSUED:          0  USEFUL:          0  USELESS:          0
cpu0_DTLB AVERAGE MISS LATENCY: 60.1181 cycles
cpu0_ITLB TOTAL     ACCESS:    6641487  HIT:    6641389  MISS:         98
cpu0_ITLB LOAD      ACCESS:    6641487  HIT:    6641389  MISS:         98
cpu0_ITLB RFO       ACCESS:          0  HIT:          0  MISS:          0
cpu0_ITLB PREFETCH  ACCESS:          0  HIT:          0  MISS:          0
cpu0_ITLB WRITEBACK ACCESS:          0  HIT:          0  MISS:          0
cpu0_ITLB TRANSLATION ACCESS:          0  HIT:          0  MISS:          0
cpu0_ITLB PREFETCH  REQUESTED:          0  ISSUED:          0  USEFUL:          0  USELESS:          0
cpu0_ITLB AVERAGE MISS LATENCY: 371.051 cycles
cpu0_L1I TOTAL     ACCESS:    5244993  HIT:    5242127  MISS:       2866
cpu0_L1I LOAD      ACCESS:    5244993  HIT:    5242127  MISS:       2866
cpu0_L1I RFO       ACCESS:          0  HIT:          0  MISS:          0
cpu0_L1I PREFETCH  ACCESS:          0  HIT:          0  MISS:          0
cpu0_L1I WRITEBACK ACCESS:          0  HIT:          0  MISS:          0
cpu0_L1I TRANSLATION ACCESS:          0  HIT:          0  MISS:          0
cpu0_L1I PREFETCH  REQUESTED:          0  ISSUED:          0  USEFUL:          0  USELESS:          0
cpu0_L1I AVERAGE MISS LATENCY: 619.585 cycles
cpu0_STLB TOTAL     ACCESS:     222270  HIT:     126988  MISS:      95282
cpu0_STLB LOAD      ACCESS:     176700  HIT:      93506  MISS:      83194
cpu0_STLB RFO       ACCESS:      45570  HIT:      33482  MISS:      12088
cpu0_STLB PREFETCH  ACCESS:          0  HIT:          0  MISS:          0
cpu0_STLB WRITEBACK ACCESS:          0  HIT:          0  MISS:          0
cpu0_STLB TRANSLATION ACCESS:          0  HIT:          0  MISS:          0
cpu0_STLB PREFETCH  REQUESTED:          0  ISSUED:          0  USEFUL:          0  USELESS:          0
cpu0_STLB AVERAGE MISS LATENCY: 119.21 cycles
cpu0_L1D TOTAL     ACCESS:  474170265  HIT:  464278665  MISS:    9891600
cpu0_L1D LOAD      ACCESS:  248685211  HIT:  245451930  MISS:    3233281
cpu0_L1D RFO       ACCESS:   46549541  HIT:   45308927  MISS:    1240614
cpu0_L1D PREFETCH  ACCESS:  178842484  HIT:  173447916  MISS:    5394568
cpu0_L1D WRITEBACK ACCESS:          0  HIT:          0  MISS:          0
cpu0_L1D TRANSLATION ACCESS:      93029  HIT:      69892  MISS:      23137
cpu0_L1D PREFETCH  REQUESTED:  255950998  ISSUED:  236228023  USEFUL:    8134611  USELESS:      98052
cpu0_L1D AVERAGE MISS LATENCY: 217.461 cycles
cpu0_L2C TOTAL     ACCESS:   13322815  HIT:    6649800  MISS:    6673015
cpu0_L2C LOAD      ACCESS:     398090  HIT:     144676  MISS:     253414
cpu0_L2C RFO       ACCESS:    1240526  HIT:     561103  MISS:     679423
cpu0_L2C PREFETCH  ACCESS:    8845648  HIT:    3110149  MISS:    5735499
cpu0_L2C WRITEBACK ACCESS:    2815414  HIT:    2813173  MISS:       2241
cpu0_L2C TRANSLATION ACCESS:      23137  HIT:      20699  MISS:       2438
cpu0_L2C PREFETCH  REQUESTED:     658183  ISSUED:     647564  USEFUL:      24090  USELESS:      17524
cpu0_L2C AVERAGE MISS LATENCY: 565.118 cycles
LLC TOTAL     ACCESS:    8743466  HIT:    2580807  MISS:    6162659
LLC LOAD      ACCESS:     253409  HIT:      60381  MISS:     193028
LLC RFO       ACCESS:     679418  HIT:      52910  MISS:     626508
LLC PREFETCH  ACCESS:    5741414  HIT:     433623  MISS:    5307791
LLC WRITEBACK ACCESS:    2066787  HIT:    2031764  MISS:      35023
LLC TRANSLATION ACCESS:       2438  HIT:       2129  MISS:        309
LLC PREFETCH  REQUESTED:          0  ISSUED:          0  USEFUL:          0  USELESS:          0
LLC AVERAGE MISS LATENCY: 584.006 cycles

DRAM Statistics
 CHANNEL 0
 RQ ROW_BUFFER_HIT:     176330  ROW_BUFFER_MISS:    5951131
 DBUS AVG_CONGESTED_CYCLE:    3.97077
 WQ ROW_BUFFER_HIT:      44439  ROW_BUFFER_MISS:    1895193  FULL:          0


CPU 0 Branch Prediction Accuracy: 99.2233% MPKI: 0.294287 Average ROB Occupancy at Mispredict: 124.133
Branch type MPKI
BRANCH_DIRECT_JUMP: 0.00025
BRANCH_INDIRECT: 0
BRANCH_CONDITIONAL: 0.293873
BRANCH_DIRECT_CALL: 8.6e-05
BRANCH_INDIRECT_CALL: 0
BRANCH_RETURN: 7.8e-05

