
*** ChampSim Multicore Out-of-Order Simulator ***

Warmup Instructions: 1000000
Simulation Instructions: 1000000000
Number of CPUs: 1
Off-chip DRAM Size: 4 GiB Channels: 1 Width: 64-bit Data Rate: 3200 MT/s

VirtualMemory physical capacity: 8588881920 num_ppages: 2096895
VirtualMemory page size: 4096 log2_page_size: 12

CPU 0 runs tracer/pin/traces/spec2k17/641.leela_s-800B.champsimtrace.xz
Basic BTB sets: 1024 ways: 8 indirect buffer size: 4096 RAS size: 64
cpu0_L1D next line prefetcher
cpu0_L2C IP-based stride prefetcher
WARNING: The extended signature CACHE::prefetch_line(ip, base_addr, pf_addr, fill_this_level, prefetch_metadata) is deprecated.
WARNING: Use CACHE::prefetch_line(pf_addr, fill_this_level, prefetch_metadata) instead.

Warmup complete CPU 0 instructions: 1000004 cycles: 251734 (Simulation time: 0 hr 0 min 4 sec) 

Heartbeat CPU 0 instructions: 10000000 cycles: 8858642 heartbeat IPC: 1.12884 cumulative IPC: 1.04567 (Simulation time: 0 hr 0 min 49 sec) 
Heartbeat CPU 0 instructions: 20000002 cycles: 18091055 heartbeat IPC: 1.08314 cumulative IPC: 1.06506 (Simulation time: 0 hr 1 min 40 sec) 
Heartbeat CPU 0 instructions: 30000004 cycles: 27294434 heartbeat IPC: 1.08656 cumulative IPC: 1.07238 (Simulation time: 0 hr 2 min 30 sec) 
Heartbeat CPU 0 instructions: 40000000 cycles: 36435144 heartbeat IPC: 1.09401 cumulative IPC: 1.07784 (Simulation time: 0 hr 3 min 24 sec) 
Heartbeat CPU 0 instructions: 50000002 cycles: 45588913 heartbeat IPC: 1.09245 cumulative IPC: 1.08079 (Simulation time: 0 hr 4 min 17 sec) 
Heartbeat CPU 0 instructions: 60000000 cycles: 54768991 heartbeat IPC: 1.08932 cumulative IPC: 1.08223 (Simulation time: 0 hr 5 min 10 sec) 
Heartbeat CPU 0 instructions: 70000002 cycles: 63941617 heartbeat IPC: 1.0902 cumulative IPC: 1.08337 (Simulation time: 0 hr 6 min 4 sec) 
Heartbeat CPU 0 instructions: 80000001 cycles: 73081702 heartbeat IPC: 1.09408 cumulative IPC: 1.08472 (Simulation time: 0 hr 6 min 57 sec) 
Heartbeat CPU 0 instructions: 90000000 cycles: 82128125 heartbeat IPC: 1.10541 cumulative IPC: 1.087 (Simulation time: 0 hr 7 min 49 sec) 
Heartbeat CPU 0 instructions: 100000000 cycles: 91301744 heartbeat IPC: 1.09008 cumulative IPC: 1.08731 (Simulation time: 0 hr 8 min 43 sec) 
Heartbeat CPU 0 instructions: 110000000 cycles: 100390584 heartbeat IPC: 1.10025 cumulative IPC: 1.08849 (Simulation time: 0 hr 9 min 35 sec) 
Heartbeat CPU 0 instructions: 120000001 cycles: 115192701 heartbeat IPC: 0.675579 cumulative IPC: 1.03531 (Simulation time: 0 hr 10 min 59 sec) 
Heartbeat CPU 0 instructions: 130000000 cycles: 124426468 heartbeat IPC: 1.08298 cumulative IPC: 1.03886 (Simulation time: 0 hr 11 min 52 sec) 
Heartbeat CPU 0 instructions: 140000001 cycles: 133552159 heartbeat IPC: 1.09581 cumulative IPC: 1.04276 (Simulation time: 0 hr 12 min 45 sec) 
Heartbeat CPU 0 instructions: 150000004 cycles: 142593955 heartbeat IPC: 1.10598 cumulative IPC: 1.04677 (Simulation time: 0 hr 13 min 38 sec) 
Heartbeat CPU 0 instructions: 160000003 cycles: 151678414 heartbeat IPC: 1.10078 cumulative IPC: 1.05001 (Simulation time: 0 hr 14 min 31 sec) 
Heartbeat CPU 0 instructions: 170000002 cycles: 160925532 heartbeat IPC: 1.08142 cumulative IPC: 1.05182 (Simulation time: 0 hr 15 min 25 sec) 
Heartbeat CPU 0 instructions: 180000000 cycles: 170037575 heartbeat IPC: 1.09745 cumulative IPC: 1.05427 (Simulation time: 0 hr 16 min 18 sec) 
Heartbeat CPU 0 instructions: 190000000 cycles: 179139276 heartbeat IPC: 1.0987 cumulative IPC: 1.05653 (Simulation time: 0 hr 17 min 11 sec) 
Heartbeat CPU 0 instructions: 200000000 cycles: 188335127 heartbeat IPC: 1.08745 cumulative IPC: 1.05804 (Simulation time: 0 hr 18 min 5 sec) 
Heartbeat CPU 0 instructions: 210000003 cycles: 197350270 heartbeat IPC: 1.10925 cumulative IPC: 1.06038 (Simulation time: 0 hr 18 min 57 sec) 
Heartbeat CPU 0 instructions: 220000000 cycles: 206435005 heartbeat IPC: 1.10075 cumulative IPC: 1.06216 (Simulation time: 0 hr 19 min 50 sec) 
Heartbeat CPU 0 instructions: 230000003 cycles: 215595106 heartbeat IPC: 1.09169 cumulative IPC: 1.06342 (Simulation time: 0 hr 20 min 43 sec) 
Heartbeat CPU 0 instructions: 240000001 cycles: 224677039 heartbeat IPC: 1.10109 cumulative IPC: 1.06494 (Simulation time: 0 hr 21 min 36 sec) 
Heartbeat CPU 0 instructions: 250000001 cycles: 233761400 heartbeat IPC: 1.10079 cumulative IPC: 1.06634 (Simulation time: 0 hr 22 min 30 sec) 
Heartbeat CPU 0 instructions: 260000003 cycles: 242783193 heartbeat IPC: 1.10843 cumulative IPC: 1.0679 (Simulation time: 0 hr 23 min 22 sec) 
Heartbeat CPU 0 instructions: 270000003 cycles: 251830624 heartbeat IPC: 1.10529 cumulative IPC: 1.06925 (Simulation time: 0 hr 24 min 15 sec) 
Heartbeat CPU 0 instructions: 280000001 cycles: 260916769 heartbeat IPC: 1.10058 cumulative IPC: 1.07034 (Simulation time: 0 hr 25 min 9 sec) 
Heartbeat CPU 0 instructions: 290000002 cycles: 269889418 heartbeat IPC: 1.1145 cumulative IPC: 1.07181 (Simulation time: 0 hr 26 min 2 sec) 
Heartbeat CPU 0 instructions: 300000001 cycles: 278934617 heartbeat IPC: 1.10556 cumulative IPC: 1.0729 (Simulation time: 0 hr 26 min 55 sec) 
Heartbeat CPU 0 instructions: 310000001 cycles: 287963151 heartbeat IPC: 1.1076 cumulative IPC: 1.07399 (Simulation time: 0 hr 27 min 48 sec) 
Heartbeat CPU 0 instructions: 320000000 cycles: 296984340 heartbeat IPC: 1.1085 cumulative IPC: 1.07504 (Simulation time: 0 hr 28 min 42 sec) 
Heartbeat CPU 0 instructions: 330000000 cycles: 305997455 heartbeat IPC: 1.10949 cumulative IPC: 1.07606 (Simulation time: 0 hr 29 min 35 sec) 
Heartbeat CPU 0 instructions: 340000001 cycles: 315035366 heartbeat IPC: 1.10645 cumulative IPC: 1.07693 (Simulation time: 0 hr 30 min 27 sec) 
Heartbeat CPU 0 instructions: 350000003 cycles: 324104573 heartbeat IPC: 1.10263 cumulative IPC: 1.07765 (Simulation time: 0 hr 31 min 20 sec) 
Heartbeat CPU 0 instructions: 360000000 cycles: 333179229 heartbeat IPC: 1.10197 cumulative IPC: 1.07831 (Simulation time: 0 hr 32 min 15 sec) 
Heartbeat CPU 0 instructions: 370000002 cycles: 342140838 heartbeat IPC: 1.11587 cumulative IPC: 1.0793 (Simulation time: 0 hr 33 min 9 sec) 
Heartbeat CPU 0 instructions: 380000002 cycles: 351228307 heartbeat IPC: 1.10042 cumulative IPC: 1.07984 (Simulation time: 0 hr 34 min 2 sec) 
Heartbeat CPU 0 instructions: 390000000 cycles: 360301580 heartbeat IPC: 1.10214 cumulative IPC: 1.08041 (Simulation time: 0 hr 34 min 55 sec) 
Heartbeat CPU 0 instructions: 400000003 cycles: 369303822 heartbeat IPC: 1.11083 cumulative IPC: 1.08115 (Simulation time: 0 hr 35 min 48 sec) 
Heartbeat CPU 0 instructions: 410000002 cycles: 378324407 heartbeat IPC: 1.10858 cumulative IPC: 1.0818 (Simulation time: 0 hr 36 min 41 sec) 
Heartbeat CPU 0 instructions: 420000000 cycles: 387438140 heartbeat IPC: 1.09724 cumulative IPC: 1.08217 (Simulation time: 0 hr 37 min 34 sec) 
Heartbeat CPU 0 instructions: 430000000 cycles: 396560367 heartbeat IPC: 1.09622 cumulative IPC: 1.08249 (Simulation time: 0 hr 38 min 26 sec) 
Heartbeat CPU 0 instructions: 440000004 cycles: 405639084 heartbeat IPC: 1.10148 cumulative IPC: 1.08291 (Simulation time: 0 hr 39 min 20 sec) 
Heartbeat CPU 0 instructions: 450000003 cycles: 414702612 heartbeat IPC: 1.10332 cumulative IPC: 1.08336 (Simulation time: 0 hr 40 min 13 sec) 
Heartbeat CPU 0 instructions: 460000000 cycles: 423783770 heartbeat IPC: 1.10118 cumulative IPC: 1.08374 (Simulation time: 0 hr 41 min 7 sec) 
Heartbeat CPU 0 instructions: 470000002 cycles: 432916484 heartbeat IPC: 1.09496 cumulative IPC: 1.08398 (Simulation time: 0 hr 42 min 0 sec) 
Heartbeat CPU 0 instructions: 480000000 cycles: 442000377 heartbeat IPC: 1.10085 cumulative IPC: 1.08433 (Simulation time: 0 hr 42 min 54 sec) 
Heartbeat CPU 0 instructions: 490000000 cycles: 450992871 heartbeat IPC: 1.11204 cumulative IPC: 1.08488 (Simulation time: 0 hr 43 min 46 sec) 
Heartbeat CPU 0 instructions: 500000002 cycles: 459949910 heartbeat IPC: 1.11644 cumulative IPC: 1.08549 (Simulation time: 0 hr 44 min 39 sec) 
Heartbeat CPU 0 instructions: 510000004 cycles: 469013674 heartbeat IPC: 1.10329 cumulative IPC: 1.08584 (Simulation time: 0 hr 45 min 31 sec) 
Heartbeat CPU 0 instructions: 520000000 cycles: 478115995 heartbeat IPC: 1.09862 cumulative IPC: 1.08608 (Simulation time: 0 hr 46 min 23 sec) 
Heartbeat CPU 0 instructions: 530000002 cycles: 487188949 heartbeat IPC: 1.10218 cumulative IPC: 1.08638 (Simulation time: 0 hr 47 min 16 sec) 
Heartbeat CPU 0 instructions: 540000001 cycles: 496246856 heartbeat IPC: 1.10401 cumulative IPC: 1.0867 (Simulation time: 0 hr 48 min 8 sec) 
Heartbeat CPU 0 instructions: 550000001 cycles: 505276439 heartbeat IPC: 1.10747 cumulative IPC: 1.08708 (Simulation time: 0 hr 49 min 0 sec) 
Heartbeat CPU 0 instructions: 560000002 cycles: 514356565 heartbeat IPC: 1.10131 cumulative IPC: 1.08733 (Simulation time: 0 hr 49 min 54 sec) 
Heartbeat CPU 0 instructions: 570000004 cycles: 523413661 heartbeat IPC: 1.10411 cumulative IPC: 1.08762 (Simulation time: 0 hr 50 min 47 sec) 
Heartbeat CPU 0 instructions: 580000003 cycles: 532395851 heartbeat IPC: 1.11331 cumulative IPC: 1.08805 (Simulation time: 0 hr 51 min 39 sec) 
Heartbeat CPU 0 instructions: 590000001 cycles: 541396561 heartbeat IPC: 1.11102 cumulative IPC: 1.08843 (Simulation time: 0 hr 52 min 32 sec) 
Heartbeat CPU 0 instructions: 600000000 cycles: 550396413 heartbeat IPC: 1.11113 cumulative IPC: 1.0888 (Simulation time: 0 hr 53 min 25 sec) 
Heartbeat CPU 0 instructions: 610000002 cycles: 559427503 heartbeat IPC: 1.10729 cumulative IPC: 1.0891 (Simulation time: 0 hr 54 min 17 sec) 
Heartbeat CPU 0 instructions: 620000004 cycles: 568507751 heartbeat IPC: 1.10129 cumulative IPC: 1.0893 (Simulation time: 0 hr 55 min 10 sec) 
Heartbeat CPU 0 instructions: 630000003 cycles: 577592046 heartbeat IPC: 1.1008 cumulative IPC: 1.08948 (Simulation time: 0 hr 56 min 4 sec) 
Heartbeat CPU 0 instructions: 640000002 cycles: 586696947 heartbeat IPC: 1.09831 cumulative IPC: 1.08962 (Simulation time: 0 hr 56 min 58 sec) 
Heartbeat CPU 0 instructions: 650000001 cycles: 595751598 heartbeat IPC: 1.1044 cumulative IPC: 1.08984 (Simulation time: 0 hr 57 min 50 sec) 
Heartbeat CPU 0 instructions: 660000002 cycles: 604766802 heartbeat IPC: 1.10924 cumulative IPC: 1.09013 (Simulation time: 0 hr 58 min 42 sec) 
Heartbeat CPU 0 instructions: 670000000 cycles: 613825941 heartbeat IPC: 1.10386 cumulative IPC: 1.09033 (Simulation time: 0 hr 59 min 36 sec) 
Heartbeat CPU 0 instructions: 680000004 cycles: 622901311 heartbeat IPC: 1.10188 cumulative IPC: 1.0905 (Simulation time: 1 hr 0 min 28 sec) 
Heartbeat CPU 0 instructions: 690000000 cycles: 631922799 heartbeat IPC: 1.10846 cumulative IPC: 1.09076 (Simulation time: 1 hr 1 min 21 sec) 
Heartbeat CPU 0 instructions: 700000001 cycles: 640970955 heartbeat IPC: 1.1052 cumulative IPC: 1.09096 (Simulation time: 1 hr 2 min 12 sec) 
Heartbeat CPU 0 instructions: 710000002 cycles: 649960938 heartbeat IPC: 1.11235 cumulative IPC: 1.09126 (Simulation time: 1 hr 3 min 5 sec) 
Heartbeat CPU 0 instructions: 720000000 cycles: 659053046 heartbeat IPC: 1.09985 cumulative IPC: 1.09138 (Simulation time: 1 hr 3 min 57 sec) 
Heartbeat CPU 0 instructions: 730000000 cycles: 668121921 heartbeat IPC: 1.10267 cumulative IPC: 1.09153 (Simulation time: 1 hr 4 min 48 sec) 
Heartbeat CPU 0 instructions: 740000001 cycles: 677168265 heartbeat IPC: 1.10542 cumulative IPC: 1.09172 (Simulation time: 1 hr 5 min 39 sec) 
Heartbeat CPU 0 instructions: 750000000 cycles: 686237040 heartbeat IPC: 1.10268 cumulative IPC: 1.09186 (Simulation time: 1 hr 6 min 30 sec) 
Heartbeat CPU 0 instructions: 760000002 cycles: 695290734 heartbeat IPC: 1.10452 cumulative IPC: 1.09203 (Simulation time: 1 hr 7 min 21 sec) 
Heartbeat CPU 0 instructions: 770000000 cycles: 704311522 heartbeat IPC: 1.10855 cumulative IPC: 1.09224 (Simulation time: 1 hr 8 min 11 sec) 
Heartbeat CPU 0 instructions: 780000002 cycles: 713409429 heartbeat IPC: 1.09915 cumulative IPC: 1.09232 (Simulation time: 1 hr 9 min 1 sec) 
Heartbeat CPU 0 instructions: 790000000 cycles: 722411838 heartbeat IPC: 1.11081 cumulative IPC: 1.09256 (Simulation time: 1 hr 9 min 50 sec) 
Heartbeat CPU 0 instructions: 800000000 cycles: 731460142 heartbeat IPC: 1.10518 cumulative IPC: 1.09271 (Simulation time: 1 hr 10 min 39 sec) 
Heartbeat CPU 0 instructions: 810000000 cycles: 740486968 heartbeat IPC: 1.10781 cumulative IPC: 1.0929 (Simulation time: 1 hr 11 min 28 sec) 
Heartbeat CPU 0 instructions: 820000000 cycles: 749562568 heartbeat IPC: 1.10186 cumulative IPC: 1.093 (Simulation time: 1 hr 12 min 16 sec) 
Heartbeat CPU 0 instructions: 830000003 cycles: 758596826 heartbeat IPC: 1.1069 cumulative IPC: 1.09317 (Simulation time: 1 hr 13 min 5 sec) 
Heartbeat CPU 0 instructions: 840000002 cycles: 767597448 heartbeat IPC: 1.11103 cumulative IPC: 1.09338 (Simulation time: 1 hr 13 min 53 sec) 
Heartbeat CPU 0 instructions: 850000004 cycles: 776651509 heartbeat IPC: 1.10448 cumulative IPC: 1.09351 (Simulation time: 1 hr 14 min 39 sec) 
Heartbeat CPU 0 instructions: 860000000 cycles: 785688079 heartbeat IPC: 1.10661 cumulative IPC: 1.09366 (Simulation time: 1 hr 15 min 28 sec) 
Heartbeat CPU 0 instructions: 870000004 cycles: 794751097 heartbeat IPC: 1.10339 cumulative IPC: 1.09377 (Simulation time: 1 hr 16 min 16 sec) 
Heartbeat CPU 0 instructions: 880000002 cycles: 803847485 heartbeat IPC: 1.09934 cumulative IPC: 1.09383 (Simulation time: 1 hr 17 min 4 sec) 
Heartbeat CPU 0 instructions: 890000003 cycles: 812834732 heartbeat IPC: 1.11269 cumulative IPC: 1.09404 (Simulation time: 1 hr 17 min 52 sec) 
Heartbeat CPU 0 instructions: 900000000 cycles: 821794147 heartbeat IPC: 1.11614 cumulative IPC: 1.09428 (Simulation time: 1 hr 18 min 40 sec) 
Heartbeat CPU 0 instructions: 910000001 cycles: 830727462 heartbeat IPC: 1.11941 cumulative IPC: 1.09455 (Simulation time: 1 hr 19 min 26 sec) 
Heartbeat CPU 0 instructions: 920000002 cycles: 839734460 heartbeat IPC: 1.11025 cumulative IPC: 1.09472 (Simulation time: 1 hr 20 min 13 sec) 
Heartbeat CPU 0 instructions: 930000002 cycles: 848831666 heartbeat IPC: 1.09924 cumulative IPC: 1.09477 (Simulation time: 1 hr 21 min 1 sec) 
Heartbeat CPU 0 instructions: 940000001 cycles: 857781579 heartbeat IPC: 1.11733 cumulative IPC: 1.09501 (Simulation time: 1 hr 21 min 47 sec) 
Heartbeat CPU 0 instructions: 950000000 cycles: 866841109 heartbeat IPC: 1.10381 cumulative IPC: 1.0951 (Simulation time: 1 hr 22 min 33 sec) 
Heartbeat CPU 0 instructions: 960000001 cycles: 883242182 heartbeat IPC: 0.609716 cumulative IPC: 1.08608 (Simulation time: 1 hr 23 min 50 sec) 
Heartbeat CPU 0 instructions: 970000003 cycles: 892306011 heartbeat IPC: 1.10329 cumulative IPC: 1.08626 (Simulation time: 1 hr 24 min 35 sec) 
Heartbeat CPU 0 instructions: 980000001 cycles: 901268584 heartbeat IPC: 1.11575 cumulative IPC: 1.08655 (Simulation time: 1 hr 25 min 19 sec) 
Heartbeat CPU 0 instructions: 990000001 cycles: 910299066 heartbeat IPC: 1.10736 cumulative IPC: 1.08676 (Simulation time: 1 hr 26 min 5 sec) 
Heartbeat CPU 0 instructions: 1000000001 cycles: 919378673 heartbeat IPC: 1.10137 cumulative IPC: 1.0869 (Simulation time: 1 hr 26 min 49 sec) 
Finished CPU 0 instructions: 1000000001 cycles: 920034484 cumulative IPC: 1.08692 (Simulation time: 1 hr 26 min 53 sec) 

ChampSim completed all CPUs

Region of Interest Statistics

CPU 0 cumulative IPC: 1.08692 instructions: 1000000001 cycles: 920034484
cpu0_DTLB TOTAL     ACCESS:  191239931  HIT:  190836624  MISS:     403307
cpu0_DTLB LOAD      ACCESS:  132629130  HIT:  132238720  MISS:     390410
cpu0_DTLB RFO       ACCESS:   58610801  HIT:   58597904  MISS:      12897
cpu0_DTLB PREFETCH  ACCESS:          0  HIT:          0  MISS:          0
cpu0_DTLB WRITEBACK ACCESS:          0  HIT:          0  MISS:          0
cpu0_DTLB TRANSLATION ACCESS:          0  HIT:          0  MISS:          0
cpu0_DTLB PREFETCH  REQUESTED:          0  ISSUED:          0  USEFUL:          0  USELESS:          0
cpu0_DTLB AVERAGE MISS LATENCY: 9.82915 cycles
cpu0_ITLB TOTAL     ACCESS:   99670228  HIT:   99670149  MISS:         79
cpu0_ITLB LOAD      ACCESS:   99670228  HIT:   99670149  MISS:         79
cpu0_ITLB RFO       ACCESS:          0  HIT:          0  MISS:          0
cpu0_ITLB PREFETCH  ACCESS:          0  HIT:          0  MISS:          0
cpu0_ITLB WRITEBACK ACCESS:          0  HIT:          0  MISS:          0
cpu0_ITLB TRANSLATION ACCESS:          0  HIT:          0  MISS:          0
cpu0_ITLB PREFETCH  REQUESTED:          0  ISSUED:          0  USEFUL:          0  USELESS:          0
cpu0_ITLB AVERAGE MISS LATENCY: 154.063 cycles
cpu0_L1I TOTAL     ACCESS:   96488559  HIT:   96465508  MISS:      23051
cpu0_L1I LOAD      ACCESS:   96488559  HIT:   96465508  MISS:      23051
cpu0_L1I RFO       ACCESS:          0  HIT:          0  MISS:          0
cpu0_L1I PREFETCH  ACCESS:          0  HIT:          0  MISS:          0
cpu0_L1I WRITEBACK ACCESS:          0  HIT:          0  MISS:          0
cpu0_L1I TRANSLATION ACCESS:          0  HIT:          0  MISS:          0
cpu0_L1I PREFETCH  REQUESTED:          0  ISSUED:          0  USEFUL:          0  USELESS:          0
cpu0_L1I AVERAGE MISS LATENCY: 45.49 cycles
cpu0_STLB TOTAL     ACCESS:     403386  HIT:     401426  MISS:       1960
cpu0_STLB LOAD      ACCESS:     390489  HIT:     389247  MISS:       1242
cpu0_STLB RFO       ACCESS:      12897  HIT:      12179  MISS:        718
cpu0_STLB PREFETCH  ACCESS:          0  HIT:          0  MISS:          0
cpu0_STLB WRITEBACK ACCESS:          0  HIT:          0  MISS:          0
cpu0_STLB TRANSLATION ACCESS:          0  HIT:          0  MISS:          0
cpu0_STLB PREFETCH  REQUESTED:          0  ISSUED:          0  USEFUL:          0  USELESS:          0
cpu0_STLB AVERAGE MISS LATENCY: 176.433 cycles
cpu0_L1D TOTAL     ACCESS:  435349306  HIT:  431141245  MISS:    4208061
cpu0_L1D LOAD      ACCESS:  161713296  HIT:  159467731  MISS:    2245565
cpu0_L1D RFO       ACCESS:  113993337  HIT:  113654753  MISS:     338584
cpu0_L1D PREFETCH  ACCESS:  159640717  HIT:  158017497  MISS:    1623220
cpu0_L1D WRITEBACK ACCESS:          0  HIT:          0  MISS:          0
cpu0_L1D TRANSLATION ACCESS:       1956  HIT:       1264  MISS:        692
cpu0_L1D PREFETCH  REQUESTED:  161743537  ISSUED:  160343411  USEFUL:    1012104  USELESS:     658678
cpu0_L1D AVERAGE MISS LATENCY: 23.3283 cycles
cpu0_L2C TOTAL     ACCESS:    6912203  HIT:    6550847  MISS:     361356
cpu0_L2C LOAD      ACCESS:    2223671  HIT:    2102934  MISS:     120737
cpu0_L2C RFO       ACCESS:     335907  HIT:     266171  MISS:      69736
cpu0_L2C PREFETCH  ACCESS:    3728514  HIT:    3558614  MISS:     169900
cpu0_L2C WRITEBACK ACCESS:     623419  HIT:     622790  MISS:        629
cpu0_L2C TRANSLATION ACCESS:        692  HIT:        338  MISS:        354
cpu0_L2C PREFETCH  REQUESTED:    2102204  ISSUED:    2071421  USEFUL:       7871  USELESS:       3531
cpu0_L2C AVERAGE MISS LATENCY: 172.388 cycles
LLC TOTAL     ACCESS:     452634  HIT:     329035  MISS:     123599
LLC LOAD      ACCESS:     120737  HIT:     106106  MISS:      14631
LLC RFO       ACCESS:      69721  HIT:      10699  MISS:      59022
LLC PREFETCH  ACCESS:     170304  HIT:     124045  MISS:      46259
LLC WRITEBACK ACCESS:      91518  HIT:      87837  MISS:       3681
LLC TRANSLATION ACCESS:        354  HIT:        348  MISS:          6
LLC PREFETCH  REQUESTED:          0  ISSUED:          0  USEFUL:          0  USELESS:          0
LLC AVERAGE MISS LATENCY: 428.348 cycles

DRAM Statistics
 CHANNEL 0
 RQ ROW_BUFFER_HIT:      18328  ROW_BUFFER_MISS:     101397
 DBUS AVG_CONGESTED_CYCLE:    3.92457
 WQ ROW_BUFFER_HIT:        840  ROW_BUFFER_MISS:      37685  FULL:          0


CPU 0 Branch Prediction Accuracy: 88.2322% MPKI: 19.2457 Average ROB Occupancy at Mispredict: 18.8286
Branch type MPKI
BRANCH_DIRECT_JUMP: 0.00012
BRANCH_INDIRECT: 0.000764
BRANCH_CONDITIONAL: 19.2444
BRANCH_DIRECT_CALL: 0.000182
BRANCH_INDIRECT_CALL: 2.8e-05
BRANCH_RETURN: 0.00017

