
*** ChampSim Multicore Out-of-Order Simulator ***

Warmup Instructions: 1000000
Simulation Instructions: 1000000000
Number of CPUs: 1
Off-chip DRAM Size: 4 GiB Channels: 1 Width: 64-bit Data Rate: 3200 MT/s

VirtualMemory physical capacity: 8588881920 num_ppages: 2096895
VirtualMemory page size: 4096 log2_page_size: 12

CPU 0 runs tracer/pin/traces/spec2k6/433.milc-127B.champsimtrace.xz
Basic BTB sets: 1024 ways: 8 indirect buffer size: 4096 RAS size: 64
cpu0_L1D next line prefetcher
cpu0_L2C IP-based stride prefetcher
WARNING: The extended signature CACHE::prefetch_line(ip, base_addr, pf_addr, fill_this_level, prefetch_metadata) is deprecated.
WARNING: Use CACHE::prefetch_line(pf_addr, fill_this_level, prefetch_metadata) instead.

Warmup complete CPU 0 instructions: 1000004 cycles: 265826 (Simulation time: 0 hr 0 min 2 sec) 

Heartbeat CPU 0 instructions: 10000003 cycles: 34685161 heartbeat IPC: 0.288308 cumulative IPC: 0.261481 (Simulation time: 0 hr 2 min 14 sec) 
Heartbeat CPU 0 instructions: 20000004 cycles: 73327582 heartbeat IPC: 0.258783 cumulative IPC: 0.260054 (Simulation time: 0 hr 4 min 47 sec) 
Heartbeat CPU 0 instructions: 30000002 cycles: 118723096 heartbeat IPC: 0.220286 cumulative IPC: 0.244814 (Simulation time: 0 hr 7 min 44 sec) 
Heartbeat CPU 0 instructions: 40000001 cycles: 141951293 heartbeat IPC: 0.430511 cumulative IPC: 0.275258 (Simulation time: 0 hr 8 min 56 sec) 
Heartbeat CPU 0 instructions: 50000000 cycles: 165715781 heartbeat IPC: 0.420796 cumulative IPC: 0.296162 (Simulation time: 0 hr 10 min 29 sec) 
Heartbeat CPU 0 instructions: 60000004 cycles: 189223230 heartbeat IPC: 0.425397 cumulative IPC: 0.31224 (Simulation time: 0 hr 11 min 54 sec) 
Heartbeat CPU 0 instructions: 70000004 cycles: 212482645 heartbeat IPC: 0.429933 cumulative IPC: 0.325139 (Simulation time: 0 hr 13 min 10 sec) 
Heartbeat CPU 0 instructions: 80000002 cycles: 235741854 heartbeat IPC: 0.429937 cumulative IPC: 0.335491 (Simulation time: 0 hr 14 min 35 sec) 
Heartbeat CPU 0 instructions: 90000004 cycles: 258958943 heartbeat IPC: 0.430717 cumulative IPC: 0.344037 (Simulation time: 0 hr 16 min 9 sec) 
Heartbeat CPU 0 instructions: 100000003 cycles: 310920632 heartbeat IPC: 0.192449 cumulative IPC: 0.318682 (Simulation time: 0 hr 18 min 33 sec) 
Heartbeat CPU 0 instructions: 110000003 cycles: 351225223 heartbeat IPC: 0.248111 cumulative IPC: 0.310577 (Simulation time: 0 hr 21 min 10 sec) 
Heartbeat CPU 0 instructions: 120000000 cycles: 389150498 heartbeat IPC: 0.263676 cumulative IPC: 0.306003 (Simulation time: 0 hr 24 min 6 sec) 
Heartbeat CPU 0 instructions: 130000004 cycles: 426124921 heartbeat IPC: 0.270457 cumulative IPC: 0.302917 (Simulation time: 0 hr 27 min 3 sec) 
Heartbeat CPU 0 instructions: 140000001 cycles: 468415001 heartbeat IPC: 0.236462 cumulative IPC: 0.296914 (Simulation time: 0 hr 30 min 9 sec) 
Heartbeat CPU 0 instructions: 150000004 cycles: 510460184 heartbeat IPC: 0.237839 cumulative IPC: 0.292046 (Simulation time: 0 hr 33 min 10 sec) 
Heartbeat CPU 0 instructions: 160000000 cycles: 535483461 heartbeat IPC: 0.399628 cumulative IPC: 0.297075 (Simulation time: 0 hr 35 min 4 sec) 
Heartbeat CPU 0 instructions: 170000004 cycles: 556325819 heartbeat IPC: 0.479792 cumulative IPC: 0.303924 (Simulation time: 0 hr 36 min 43 sec) 
Heartbeat CPU 0 instructions: 180000001 cycles: 577009324 heartbeat IPC: 0.483477 cumulative IPC: 0.310363 (Simulation time: 0 hr 38 min 18 sec) 
Heartbeat CPU 0 instructions: 190000004 cycles: 597476099 heartbeat IPC: 0.488597 cumulative IPC: 0.316471 (Simulation time: 0 hr 39 min 53 sec) 
Heartbeat CPU 0 instructions: 200000000 cycles: 617668216 heartbeat IPC: 0.495243 cumulative IPC: 0.322318 (Simulation time: 0 hr 41 min 27 sec) 
Heartbeat CPU 0 instructions: 210000002 cycles: 637789088 heartbeat IPC: 0.496996 cumulative IPC: 0.327831 (Simulation time: 0 hr 43 min 4 sec) 
Heartbeat CPU 0 instructions: 220000000 cycles: 657948683 heartbeat IPC: 0.496042 cumulative IPC: 0.332987 (Simulation time: 0 hr 44 min 43 sec) 
Heartbeat CPU 0 instructions: 230000000 cycles: 706967929 heartbeat IPC: 0.204002 cumulative IPC: 0.32404 (Simulation time: 0 hr 49 min 12 sec) 
Heartbeat CPU 0 instructions: 240000001 cycles: 753568802 heartbeat IPC: 0.214588 cumulative IPC: 0.317269 (Simulation time: 0 hr 52 min 49 sec) 
Heartbeat CPU 0 instructions: 250000003 cycles: 807573012 heartbeat IPC: 0.185171 cumulative IPC: 0.308433 (Simulation time: 0 hr 57 min 20 sec) 
Heartbeat CPU 0 instructions: 260000003 cycles: 848434141 heartbeat IPC: 0.244731 cumulative IPC: 0.305364 (Simulation time: 1 hr 0 min 9 sec) 
Heartbeat CPU 0 instructions: 270000002 cycles: 886716048 heartbeat IPC: 0.26122 cumulative IPC: 0.303458 (Simulation time: 1 hr 2 min 43 sec) 
Heartbeat CPU 0 instructions: 280000000 cycles: 919050204 heartbeat IPC: 0.30927 cumulative IPC: 0.303662 (Simulation time: 1 hr 4 min 48 sec) 
Heartbeat CPU 0 instructions: 290000000 cycles: 941985646 heartbeat IPC: 0.436006 cumulative IPC: 0.306885 (Simulation time: 1 hr 6 min 15 sec) 
Heartbeat CPU 0 instructions: 300000001 cycles: 964631422 heartbeat IPC: 0.441583 cumulative IPC: 0.310048 (Simulation time: 1 hr 7 min 42 sec) 
Heartbeat CPU 0 instructions: 310000004 cycles: 986955080 heartbeat IPC: 0.447955 cumulative IPC: 0.313168 (Simulation time: 1 hr 9 min 9 sec) 
Heartbeat CPU 0 instructions: 320000003 cycles: 1009148648 heartbeat IPC: 0.450581 cumulative IPC: 0.316191 (Simulation time: 1 hr 10 min 39 sec) 
Heartbeat CPU 0 instructions: 330000004 cycles: 1031308144 heartbeat IPC: 0.451274 cumulative IPC: 0.319095 (Simulation time: 1 hr 12 min 6 sec) 
Heartbeat CPU 0 instructions: 340000004 cycles: 1053449826 heartbeat IPC: 0.451637 cumulative IPC: 0.321881 (Simulation time: 1 hr 13 min 32 sec) 
Heartbeat CPU 0 instructions: 350000001 cycles: 1077531130 heartbeat IPC: 0.41526 cumulative IPC: 0.323968 (Simulation time: 1 hr 15 min 16 sec) 
Heartbeat CPU 0 instructions: 360000000 cycles: 1111942361 heartbeat IPC: 0.290603 cumulative IPC: 0.322936 (Simulation time: 1 hr 17 min 42 sec) 
Heartbeat CPU 0 instructions: 370000001 cycles: 1146289462 heartbeat IPC: 0.291145 cumulative IPC: 0.321983 (Simulation time: 1 hr 20 min 14 sec) 
Heartbeat CPU 0 instructions: 380000001 cycles: 1171749834 heartbeat IPC: 0.392767 cumulative IPC: 0.323521 (Simulation time: 1 hr 21 min 49 sec) 
Heartbeat CPU 0 instructions: 390000001 cycles: 1195635012 heartbeat IPC: 0.41867 cumulative IPC: 0.325422 (Simulation time: 1 hr 23 min 14 sec) 
Heartbeat CPU 0 instructions: 400000001 cycles: 1219222022 heartbeat IPC: 0.423962 cumulative IPC: 0.327329 (Simulation time: 1 hr 24 min 37 sec) 
Heartbeat CPU 0 instructions: 410000003 cycles: 1242580391 heartbeat IPC: 0.428112 cumulative IPC: 0.329224 (Simulation time: 1 hr 26 min 1 sec) 
Heartbeat CPU 0 instructions: 420000003 cycles: 1265774453 heartbeat IPC: 0.431145 cumulative IPC: 0.331092 (Simulation time: 1 hr 27 min 22 sec) 
Heartbeat CPU 0 instructions: 430000003 cycles: 1288957164 heartbeat IPC: 0.431356 cumulative IPC: 0.332896 (Simulation time: 1 hr 28 min 40 sec) 
Heartbeat CPU 0 instructions: 440000001 cycles: 1312168266 heartbeat IPC: 0.430828 cumulative IPC: 0.334629 (Simulation time: 1 hr 29 min 57 sec) 
Heartbeat CPU 0 instructions: 450000000 cycles: 1370692330 heartbeat IPC: 0.17087 cumulative IPC: 0.327635 (Simulation time: 1 hr 32 min 11 sec) 
Heartbeat CPU 0 instructions: 460000000 cycles: 1405869759 heartbeat IPC: 0.284273 cumulative IPC: 0.32655 (Simulation time: 1 hr 34 min 3 sec) 
Heartbeat CPU 0 instructions: 470000000 cycles: 1440405508 heartbeat IPC: 0.289555 cumulative IPC: 0.325663 (Simulation time: 1 hr 35 min 53 sec) 
Heartbeat CPU 0 instructions: 480000004 cycles: 1475587591 heartbeat IPC: 0.284236 cumulative IPC: 0.324675 (Simulation time: 1 hr 37 min 42 sec) 
Heartbeat CPU 0 instructions: 490000002 cycles: 1513819875 heartbeat IPC: 0.261559 cumulative IPC: 0.323081 (Simulation time: 1 hr 39 min 27 sec) 
Heartbeat CPU 0 instructions: 500000000 cycles: 1550976020 heartbeat IPC: 0.269134 cumulative IPC: 0.321788 (Simulation time: 1 hr 41 min 9 sec) 
Heartbeat CPU 0 instructions: 510000000 cycles: 1573980743 heartbeat IPC: 0.434693 cumulative IPC: 0.323438 (Simulation time: 1 hr 42 min 15 sec) 
Heartbeat CPU 0 instructions: 520000003 cycles: 1596728553 heartbeat IPC: 0.439603 cumulative IPC: 0.325094 (Simulation time: 1 hr 43 min 20 sec) 
Heartbeat CPU 0 instructions: 530000000 cycles: 1619172482 heartbeat IPC: 0.445555 cumulative IPC: 0.326764 (Simulation time: 1 hr 44 min 25 sec) 
Heartbeat CPU 0 instructions: 540000001 cycles: 1641410637 heartbeat IPC: 0.449678 cumulative IPC: 0.328429 (Simulation time: 1 hr 45 min 29 sec) 
Heartbeat CPU 0 instructions: 550000003 cycles: 1663604089 heartbeat IPC: 0.450583 cumulative IPC: 0.330059 (Simulation time: 1 hr 46 min 34 sec) 
Heartbeat CPU 0 instructions: 560000000 cycles: 1685805806 heartbeat IPC: 0.450415 cumulative IPC: 0.331644 (Simulation time: 1 hr 47 min 39 sec) 
Heartbeat CPU 0 instructions: 570000000 cycles: 1713441883 heartbeat IPC: 0.361846 cumulative IPC: 0.332132 (Simulation time: 1 hr 49 min 14 sec) 
Heartbeat CPU 0 instructions: 580000004 cycles: 1763098397 heartbeat IPC: 0.201384 cumulative IPC: 0.328449 (Simulation time: 1 hr 51 min 44 sec) 
Heartbeat CPU 0 instructions: 590000000 cycles: 1808769909 heartbeat IPC: 0.218955 cumulative IPC: 0.325684 (Simulation time: 1 hr 53 min 58 sec) 
Heartbeat CPU 0 instructions: 600000000 cycles: 1861828964 heartbeat IPC: 0.188469 cumulative IPC: 0.321773 (Simulation time: 1 hr 56 min 51 sec) 
Heartbeat CPU 0 instructions: 610000003 cycles: 1887350642 heartbeat IPC: 0.391824 cumulative IPC: 0.32272 (Simulation time: 1 hr 58 min 0 sec) 
Heartbeat CPU 0 instructions: 620000000 cycles: 1912580135 heartbeat IPC: 0.396361 cumulative IPC: 0.323692 (Simulation time: 1 hr 59 min 9 sec) 
Heartbeat CPU 0 instructions: 630000004 cycles: 1937268575 heartbeat IPC: 0.405048 cumulative IPC: 0.324728 (Simulation time: 2 hr 0 min 17 sec) 
Heartbeat CPU 0 instructions: 640000001 cycles: 1961952822 heartbeat IPC: 0.405117 cumulative IPC: 0.32574 (Simulation time: 2 hr 1 min 26 sec) 
Heartbeat CPU 0 instructions: 650000001 cycles: 1986645335 heartbeat IPC: 0.404981 cumulative IPC: 0.326725 (Simulation time: 2 hr 2 min 35 sec) 
Heartbeat CPU 0 instructions: 660000001 cycles: 2011351921 heartbeat IPC: 0.40475 cumulative IPC: 0.327684 (Simulation time: 2 hr 3 min 43 sec) 
Heartbeat CPU 0 instructions: 670000000 cycles: 2044969837 heartbeat IPC: 0.29746 cumulative IPC: 0.327187 (Simulation time: 2 hr 5 min 4 sec) 
Heartbeat CPU 0 instructions: 680000002 cycles: 2111051936 heartbeat IPC: 0.151327 cumulative IPC: 0.321681 (Simulation time: 2 hr 7 min 58 sec) 
Heartbeat CPU 0 instructions: 690000002 cycles: 2149705610 heartbeat IPC: 0.258708 cumulative IPC: 0.320549 (Simulation time: 2 hr 9 min 53 sec) 
Heartbeat CPU 0 instructions: 700000000 cycles: 2187364044 heartbeat IPC: 0.265545 cumulative IPC: 0.319602 (Simulation time: 2 hr 11 min 47 sec) 
Heartbeat CPU 0 instructions: 710000004 cycles: 2241602654 heartbeat IPC: 0.184371 cumulative IPC: 0.316329 (Simulation time: 2 hr 14 min 44 sec) 
Heartbeat CPU 0 instructions: 720000002 cycles: 2262832954 heartbeat IPC: 0.471025 cumulative IPC: 0.317781 (Simulation time: 2 hr 15 min 46 sec) 
Heartbeat CPU 0 instructions: 730000000 cycles: 2283843098 heartbeat IPC: 0.47596 cumulative IPC: 0.319236 (Simulation time: 2 hr 16 min 47 sec) 
Heartbeat CPU 0 instructions: 740000003 cycles: 2304700573 heartbeat IPC: 0.479445 cumulative IPC: 0.320686 (Simulation time: 2 hr 17 min 48 sec) 
Heartbeat CPU 0 instructions: 750000000 cycles: 2325199030 heartbeat IPC: 0.487841 cumulative IPC: 0.32216 (Simulation time: 2 hr 18 min 49 sec) 
Heartbeat CPU 0 instructions: 760000004 cycles: 2345738413 heartbeat IPC: 0.48687 cumulative IPC: 0.323602 (Simulation time: 2 hr 19 min 51 sec) 
Heartbeat CPU 0 instructions: 770000000 cycles: 2366251764 heartbeat IPC: 0.487487 cumulative IPC: 0.325023 (Simulation time: 2 hr 20 min 53 sec) 
Heartbeat CPU 0 instructions: 780000004 cycles: 2415746867 heartbeat IPC: 0.20204 cumulative IPC: 0.322503 (Simulation time: 2 hr 22 min 34 sec) 
Heartbeat CPU 0 instructions: 790000001 cycles: 2470851259 heartbeat IPC: 0.181474 cumulative IPC: 0.319358 (Simulation time: 2 hr 25 min 26 sec) 
Heartbeat CPU 0 instructions: 800000001 cycles: 2512419194 heartbeat IPC: 0.24057 cumulative IPC: 0.318054 (Simulation time: 2 hr 27 min 28 sec) 
Heartbeat CPU 0 instructions: 810000001 cycles: 2569887922 heartbeat IPC: 0.174008 cumulative IPC: 0.314832 (Simulation time: 2 hr 30 min 34 sec) 
Heartbeat CPU 0 instructions: 820000004 cycles: 2612840407 heartbeat IPC: 0.232815 cumulative IPC: 0.313484 (Simulation time: 2 hr 32 min 34 sec) 
Heartbeat CPU 0 instructions: 830000004 cycles: 2654855665 heartbeat IPC: 0.238009 cumulative IPC: 0.312289 (Simulation time: 2 hr 34 min 23 sec) 
Heartbeat CPU 0 instructions: 840000000 cycles: 2687991734 heartbeat IPC: 0.301786 cumulative IPC: 0.31216 (Simulation time: 2 hr 35 min 52 sec) 
Heartbeat CPU 0 instructions: 850000000 cycles: 2708869530 heartbeat IPC: 0.478978 cumulative IPC: 0.313446 (Simulation time: 2 hr 36 min 53 sec) 
Heartbeat CPU 0 instructions: 860000004 cycles: 2729641884 heartbeat IPC: 0.481409 cumulative IPC: 0.314724 (Simulation time: 2 hr 37 min 54 sec) 
Heartbeat CPU 0 instructions: 870000002 cycles: 2750263861 heartbeat IPC: 0.484919 cumulative IPC: 0.316 (Simulation time: 2 hr 38 min 55 sec) 
Heartbeat CPU 0 instructions: 880000003 cycles: 2770479533 heartbeat IPC: 0.494666 cumulative IPC: 0.317304 (Simulation time: 2 hr 39 min 55 sec) 
Heartbeat CPU 0 instructions: 890000002 cycles: 2790626052 heartbeat IPC: 0.496364 cumulative IPC: 0.318597 (Simulation time: 2 hr 40 min 57 sec) 
Heartbeat CPU 0 instructions: 900000000 cycles: 2810813628 heartbeat IPC: 0.495354 cumulative IPC: 0.319866 (Simulation time: 2 hr 41 min 57 sec) 
Heartbeat CPU 0 instructions: 910000004 cycles: 2835658474 heartbeat IPC: 0.402498 cumulative IPC: 0.320591 (Simulation time: 2 hr 43 min 13 sec) 
Heartbeat CPU 0 instructions: 920000003 cycles: 2874298831 heartbeat IPC: 0.258797 cumulative IPC: 0.31976 (Simulation time: 2 hr 45 min 0 sec) 
Heartbeat CPU 0 instructions: 930000000 cycles: 2912863846 heartbeat IPC: 0.259302 cumulative IPC: 0.318959 (Simulation time: 2 hr 46 min 46 sec) 
Heartbeat CPU 0 instructions: 940000004 cycles: 2936098597 heartbeat IPC: 0.43039 cumulative IPC: 0.319841 (Simulation time: 2 hr 47 min 53 sec) 
Heartbeat CPU 0 instructions: 950000002 cycles: 2957581887 heartbeat IPC: 0.465478 cumulative IPC: 0.320899 (Simulation time: 2 hr 48 min 57 sec) 
Heartbeat CPU 0 instructions: 960000001 cycles: 2978872568 heartbeat IPC: 0.469689 cumulative IPC: 0.321963 (Simulation time: 2 hr 49 min 59 sec) 
Heartbeat CPU 0 instructions: 970000000 cycles: 3000021022 heartbeat IPC: 0.472848 cumulative IPC: 0.323026 (Simulation time: 2 hr 51 min 2 sec) 
Heartbeat CPU 0 instructions: 980000002 cycles: 3021078044 heartbeat IPC: 0.474901 cumulative IPC: 0.324085 (Simulation time: 2 hr 52 min 5 sec) 
Heartbeat CPU 0 instructions: 990000001 cycles: 3042150839 heartbeat IPC: 0.474545 cumulative IPC: 0.325127 (Simulation time: 2 hr 53 min 8 sec) 
Heartbeat CPU 0 instructions: 1000000001 cycles: 3063203893 heartbeat IPC: 0.47499 cumulative IPC: 0.326157 (Simulation time: 2 hr 54 min 11 sec) 
Finished CPU 0 instructions: 1000000004 cycles: 3066330788 cumulative IPC: 0.326123 (Simulation time: 2 hr 54 min 19 sec) 

ChampSim completed all CPUs

Region of Interest Statistics

CPU 0 cumulative IPC: 0.326123 instructions: 1000000004 cycles: 3066330788
cpu0_DTLB TOTAL     ACCESS:  175592742  HIT:  173714848  MISS:    1877894
cpu0_DTLB LOAD      ACCESS:  122693102  HIT:  120860163  MISS:    1832939
cpu0_DTLB RFO       ACCESS:   52899640  HIT:   52854685  MISS:      44955
cpu0_DTLB PREFETCH  ACCESS:          0  HIT:          0  MISS:          0
cpu0_DTLB WRITEBACK ACCESS:          0  HIT:          0  MISS:          0
cpu0_DTLB TRANSLATION ACCESS:          0  HIT:          0  MISS:          0
cpu0_DTLB PREFETCH  REQUESTED:          0  ISSUED:          0  USEFUL:          0  USELESS:          0
cpu0_DTLB AVERAGE MISS LATENCY: 26.847 cycles
cpu0_ITLB TOTAL     ACCESS:   97329226  HIT:   97329218  MISS:          8
cpu0_ITLB LOAD      ACCESS:   97329226  HIT:   97329218  MISS:          8
cpu0_ITLB RFO       ACCESS:          0  HIT:          0  MISS:          0
cpu0_ITLB PREFETCH  ACCESS:          0  HIT:          0  MISS:          0
cpu0_ITLB WRITEBACK ACCESS:          0  HIT:          0  MISS:          0
cpu0_ITLB TRANSLATION ACCESS:          0  HIT:          0  MISS:          0
cpu0_ITLB PREFETCH  REQUESTED:          0  ISSUED:          0  USEFUL:          0  USELESS:          0
cpu0_ITLB AVERAGE MISS LATENCY: 540.5 cycles
cpu0_L1I TOTAL     ACCESS:       2822  HIT:       2720  MISS:        102
cpu0_L1I LOAD      ACCESS:       2822  HIT:       2720  MISS:        102
cpu0_L1I RFO       ACCESS:          0  HIT:          0  MISS:          0
cpu0_L1I PREFETCH  ACCESS:          0  HIT:          0  MISS:          0
cpu0_L1I WRITEBACK ACCESS:          0  HIT:          0  MISS:          0
cpu0_L1I TRANSLATION ACCESS:          0  HIT:          0  MISS:          0
cpu0_L1I PREFETCH  REQUESTED:          0  ISSUED:          0  USEFUL:          0  USELESS:          0
cpu0_L1I AVERAGE MISS LATENCY: 494.569 cycles
cpu0_STLB TOTAL     ACCESS:    1877902  HIT:       1733  MISS:    1876169
cpu0_STLB LOAD      ACCESS:    1832947  HIT:       1524  MISS:    1831423
cpu0_STLB RFO       ACCESS:      44955  HIT:        209  MISS:      44746
cpu0_STLB PREFETCH  ACCESS:          0  HIT:          0  MISS:          0
cpu0_STLB WRITEBACK ACCESS:          0  HIT:          0  MISS:          0
cpu0_STLB TRANSLATION ACCESS:          0  HIT:          0  MISS:          0
cpu0_STLB PREFETCH  REQUESTED:          0  ISSUED:          0  USEFUL:          0  USELESS:          0
cpu0_STLB AVERAGE MISS LATENCY: 17.8651 cycles
cpu0_L1D TOTAL     ACCESS:  311383202  HIT:  287348777  MISS:   24034425
cpu0_L1D LOAD      ACCESS:  114008511  HIT:  101512099  MISS:   12496412
cpu0_L1D RFO       ACCESS:  110370180  HIT:  107495064  MISS:    2875116
cpu0_L1D PREFETCH  ACCESS:   85128347  HIT:   76491709  MISS:    8636638
cpu0_L1D WRITEBACK ACCESS:          0  HIT:          0  MISS:          0
cpu0_L1D TRANSLATION ACCESS:    1876164  HIT:    1849905  MISS:      26259
cpu0_L1D PREFETCH  REQUESTED:  126965474  ISSUED:  123970999  USEFUL:    8857960  USELESS:    4958719
cpu0_L1D AVERAGE MISS LATENCY: 526.121 cycles
cpu0_L2C TOTAL     ACCESS:   31870023  HIT:    6891399  MISS:   24978624
cpu0_L2C LOAD      ACCESS:    7316478  HIT:         33  MISS:    7316445
cpu0_L2C RFO       ACCESS:    2875109  HIT:          1  MISS:    2875108
cpu0_L2C PREFETCH  ACCESS:   15411309  HIT:     629482  MISS:   14781827
cpu0_L2C WRITEBACK ACCESS:    6240868  HIT:    6240753  MISS:        115
cpu0_L2C TRANSLATION ACCESS:      26259  HIT:      21130  MISS:       5129
cpu0_L2C PREFETCH  REQUESTED:    1814361  ISSUED:    1803427  USEFUL:      59137  USELESS:     906100
cpu0_L2C AVERAGE MISS LATENCY: 651.14 cycles
LLC TOTAL     ACCESS:   31372406  HIT:    5808099  MISS:   25564307
LLC LOAD      ACCESS:    7316445  HIT:       3351  MISS:    7313094
LLC RFO       ACCESS:    2875108  HIT:         87  MISS:    2875021
LLC PREFETCH  ACCESS:   14935062  HIT:      47065  MISS:   14887997
LLC WRITEBACK ACCESS:    6240662  HIT:    5753140  MISS:     487522
LLC TRANSLATION ACCESS:       5129  HIT:       4456  MISS:        673
LLC PREFETCH  REQUESTED:          0  ISSUED:          0  USEFUL:          0  USELESS:          0
LLC AVERAGE MISS LATENCY: 615.476 cycles

DRAM Statistics
 CHANNEL 0
 RQ ROW_BUFFER_HIT:    5495194  ROW_BUFFER_MISS:   19581459
 DBUS AVG_CONGESTED_CYCLE:    3.94175
 WQ ROW_BUFFER_HIT:     158483  ROW_BUFFER_MISS:    6080115  FULL:          0


CPU 0 Branch Prediction Accuracy: 79.4606% MPKI: 14.2146 Average ROB Occupancy at Mispredict: 60.8215
Branch type MPKI
BRANCH_DIRECT_JUMP: 1.7e-05
BRANCH_INDIRECT: 0
BRANCH_CONDITIONAL: 14.2145
BRANCH_DIRECT_CALL: 3.2e-05
BRANCH_INDIRECT_CALL: 0
BRANCH_RETURN: 3.2e-05

