
*** ChampSim Multicore Out-of-Order Simulator ***

Warmup Instructions: 1000000
Simulation Instructions: 1000000000
Number of CPUs: 1
Off-chip DRAM Size: 4 GiB Channels: 1 Width: 64-bit Data Rate: 3200 MT/s

VirtualMemory physical capacity: 8588881920 num_ppages: 2096895
VirtualMemory page size: 4096 log2_page_size: 12

CPU 0 runs tracer/pin/traces/spec2k6/445.gobmk-30B.champsimtrace.xz
Basic BTB sets: 1024 ways: 8 indirect buffer size: 4096 RAS size: 64
cpu0_L1D next line prefetcher
cpu0_L2C IP-based stride prefetcher
WARNING: The extended signature CACHE::prefetch_line(ip, base_addr, pf_addr, fill_this_level, prefetch_metadata) is deprecated.
WARNING: Use CACHE::prefetch_line(pf_addr, fill_this_level, prefetch_metadata) instead.

Warmup complete CPU 0 instructions: 1000003 cycles: 250081 (Simulation time: 0 hr 0 min 3 sec) 

Heartbeat CPU 0 instructions: 10000000 cycles: 11195432 heartbeat IPC: 0.893221 cumulative IPC: 0.822267 (Simulation time: 0 hr 0 min 57 sec) 
Heartbeat CPU 0 instructions: 20000001 cycles: 21932843 heartbeat IPC: 0.931323 cumulative IPC: 0.876272 (Simulation time: 0 hr 2 min 0 sec) 
Heartbeat CPU 0 instructions: 30000001 cycles: 32564363 heartbeat IPC: 0.940599 cumulative IPC: 0.897436 (Simulation time: 0 hr 2 min 52 sec) 
Heartbeat CPU 0 instructions: 40000000 cycles: 43076113 heartbeat IPC: 0.951316 cumulative IPC: 0.910661 (Simulation time: 0 hr 3 min 53 sec) 
Heartbeat CPU 0 instructions: 50000004 cycles: 53755496 heartbeat IPC: 0.936384 cumulative IPC: 0.915795 (Simulation time: 0 hr 4 min 52 sec) 
Heartbeat CPU 0 instructions: 60000001 cycles: 64326206 heartbeat IPC: 0.94601 cumulative IPC: 0.92078 (Simulation time: 0 hr 5 min 50 sec) 
Heartbeat CPU 0 instructions: 70000000 cycles: 75088241 heartbeat IPC: 0.929192 cumulative IPC: 0.92199 (Simulation time: 0 hr 6 min 50 sec) 
Heartbeat CPU 0 instructions: 80000002 cycles: 85151141 heartbeat IPC: 0.993749 cumulative IPC: 0.930495 (Simulation time: 0 hr 7 min 47 sec) 
Heartbeat CPU 0 instructions: 90000001 cycles: 95584649 heartbeat IPC: 0.95845 cumulative IPC: 0.933554 (Simulation time: 0 hr 8 min 40 sec) 
Heartbeat CPU 0 instructions: 100000004 cycles: 106076684 heartbeat IPC: 0.953104 cumulative IPC: 0.935493 (Simulation time: 0 hr 9 min 36 sec) 
Heartbeat CPU 0 instructions: 110000004 cycles: 116596721 heartbeat IPC: 0.950567 cumulative IPC: 0.936856 (Simulation time: 0 hr 10 min 32 sec) 
Heartbeat CPU 0 instructions: 120000000 cycles: 127557175 heartbeat IPC: 0.912371 cumulative IPC: 0.934748 (Simulation time: 0 hr 11 min 27 sec) 
Heartbeat CPU 0 instructions: 130000001 cycles: 138309059 heartbeat IPC: 0.93007 cumulative IPC: 0.934383 (Simulation time: 0 hr 12 min 22 sec) 
Heartbeat CPU 0 instructions: 140000003 cycles: 149346905 heartbeat IPC: 0.905974 cumulative IPC: 0.93228 (Simulation time: 0 hr 13 min 20 sec) 
Heartbeat CPU 0 instructions: 150000004 cycles: 170165082 heartbeat IPC: 0.48035 cumulative IPC: 0.876909 (Simulation time: 0 hr 15 min 52 sec) 
Heartbeat CPU 0 instructions: 160000000 cycles: 216919507 heartbeat IPC: 0.213883 cumulative IPC: 0.733837 (Simulation time: 0 hr 21 min 14 sec) 
Heartbeat CPU 0 instructions: 170000000 cycles: 249143651 heartbeat IPC: 0.310326 cumulative IPC: 0.679005 (Simulation time: 0 hr 24 min 45 sec) 
Heartbeat CPU 0 instructions: 180000002 cycles: 259856005 heartbeat IPC: 0.933502 cumulative IPC: 0.689507 (Simulation time: 0 hr 25 min 46 sec) 
Heartbeat CPU 0 instructions: 190000000 cycles: 270055532 heartbeat IPC: 0.980437 cumulative IPC: 0.700505 (Simulation time: 0 hr 26 min 46 sec) 
Heartbeat CPU 0 instructions: 200000000 cycles: 280099503 heartbeat IPC: 0.995622 cumulative IPC: 0.711097 (Simulation time: 0 hr 27 min 44 sec) 
Heartbeat CPU 0 instructions: 210000000 cycles: 290479600 heartbeat IPC: 0.963382 cumulative IPC: 0.72012 (Simulation time: 0 hr 28 min 41 sec) 
Heartbeat CPU 0 instructions: 220000004 cycles: 301371642 heartbeat IPC: 0.918102 cumulative IPC: 0.727281 (Simulation time: 0 hr 29 min 38 sec) 
Heartbeat CPU 0 instructions: 230000000 cycles: 312065775 heartbeat IPC: 0.935092 cumulative IPC: 0.734408 (Simulation time: 0 hr 30 min 36 sec) 
Heartbeat CPU 0 instructions: 240000000 cycles: 322348608 heartbeat IPC: 0.972495 cumulative IPC: 0.742009 (Simulation time: 0 hr 31 min 34 sec) 
Heartbeat CPU 0 instructions: 250000000 cycles: 332782726 heartbeat IPC: 0.958394 cumulative IPC: 0.748799 (Simulation time: 0 hr 32 min 31 sec) 
Heartbeat CPU 0 instructions: 260000002 cycles: 343308684 heartbeat IPC: 0.950032 cumulative IPC: 0.754973 (Simulation time: 0 hr 33 min 30 sec) 
Heartbeat CPU 0 instructions: 270000002 cycles: 353847675 heartbeat IPC: 0.948857 cumulative IPC: 0.760752 (Simulation time: 0 hr 34 min 28 sec) 
Heartbeat CPU 0 instructions: 280000004 cycles: 364349472 heartbeat IPC: 0.952218 cumulative IPC: 0.766274 (Simulation time: 0 hr 35 min 24 sec) 
Heartbeat CPU 0 instructions: 290000004 cycles: 374908163 heartbeat IPC: 0.947087 cumulative IPC: 0.77137 (Simulation time: 0 hr 36 min 21 sec) 
Heartbeat CPU 0 instructions: 300000000 cycles: 385640212 heartbeat IPC: 0.931788 cumulative IPC: 0.775837 (Simulation time: 0 hr 37 min 19 sec) 
Heartbeat CPU 0 instructions: 310000000 cycles: 396312638 heartbeat IPC: 0.936994 cumulative IPC: 0.78018 (Simulation time: 0 hr 38 min 21 sec) 
Heartbeat CPU 0 instructions: 320000003 cycles: 406920934 heartbeat IPC: 0.942659 cumulative IPC: 0.784418 (Simulation time: 0 hr 39 min 18 sec) 
Heartbeat CPU 0 instructions: 330000000 cycles: 416809207 heartbeat IPC: 1.0113 cumulative IPC: 0.789804 (Simulation time: 0 hr 40 min 14 sec) 
Heartbeat CPU 0 instructions: 340000003 cycles: 426110930 heartbeat IPC: 1.07507 cumulative IPC: 0.796035 (Simulation time: 0 hr 41 min 5 sec) 
Heartbeat CPU 0 instructions: 350000002 cycles: 436111243 heartbeat IPC: 0.999969 cumulative IPC: 0.800714 (Simulation time: 0 hr 41 min 56 sec) 
Heartbeat CPU 0 instructions: 360000004 cycles: 446743284 heartbeat IPC: 0.940553 cumulative IPC: 0.804044 (Simulation time: 0 hr 42 min 48 sec) 
Heartbeat CPU 0 instructions: 370000001 cycles: 457581591 heartbeat IPC: 0.922653 cumulative IPC: 0.806855 (Simulation time: 0 hr 43 min 38 sec) 
Heartbeat CPU 0 instructions: 380000002 cycles: 468423014 heartbeat IPC: 0.922388 cumulative IPC: 0.80953 (Simulation time: 0 hr 44 min 29 sec) 
Heartbeat CPU 0 instructions: 390000001 cycles: 479692939 heartbeat IPC: 0.887317 cumulative IPC: 0.811358 (Simulation time: 0 hr 45 min 23 sec) 
Heartbeat CPU 0 instructions: 400000000 cycles: 490722470 heartbeat IPC: 0.906657 cumulative IPC: 0.813501 (Simulation time: 0 hr 46 min 16 sec) 
Heartbeat CPU 0 instructions: 410000000 cycles: 501683883 heartbeat IPC: 0.912291 cumulative IPC: 0.815661 (Simulation time: 0 hr 47 min 9 sec) 
Heartbeat CPU 0 instructions: 420000000 cycles: 512497172 heartbeat IPC: 0.924788 cumulative IPC: 0.817965 (Simulation time: 0 hr 48 min 2 sec) 
Heartbeat CPU 0 instructions: 430000002 cycles: 523150546 heartbeat IPC: 0.93867 cumulative IPC: 0.820424 (Simulation time: 0 hr 48 min 53 sec) 
Heartbeat CPU 0 instructions: 440000001 cycles: 534041861 heartbeat IPC: 0.918163 cumulative IPC: 0.822418 (Simulation time: 0 hr 49 min 44 sec) 
Heartbeat CPU 0 instructions: 450000000 cycles: 545054981 heartbeat IPC: 0.908008 cumulative IPC: 0.824148 (Simulation time: 0 hr 50 min 34 sec) 
Heartbeat CPU 0 instructions: 460000004 cycles: 555972582 heartbeat IPC: 0.915953 cumulative IPC: 0.825952 (Simulation time: 0 hr 51 min 24 sec) 
Heartbeat CPU 0 instructions: 470000001 cycles: 566690544 heartbeat IPC: 0.933013 cumulative IPC: 0.827978 (Simulation time: 0 hr 52 min 13 sec) 
Heartbeat CPU 0 instructions: 480000001 cycles: 577535633 heartbeat IPC: 0.922076 cumulative IPC: 0.829745 (Simulation time: 0 hr 53 min 2 sec) 
Heartbeat CPU 0 instructions: 490000000 cycles: 588235765 heartbeat IPC: 0.934568 cumulative IPC: 0.831653 (Simulation time: 0 hr 53 min 50 sec) 
Heartbeat CPU 0 instructions: 500000003 cycles: 598953042 heartbeat IPC: 0.933073 cumulative IPC: 0.833468 (Simulation time: 0 hr 54 min 38 sec) 
Heartbeat CPU 0 instructions: 510000000 cycles: 609981630 heartbeat IPC: 0.906734 cumulative IPC: 0.834794 (Simulation time: 0 hr 55 min 28 sec) 
Heartbeat CPU 0 instructions: 520000004 cycles: 620574520 heartbeat IPC: 0.94403 cumulative IPC: 0.836659 (Simulation time: 0 hr 56 min 18 sec) 
Heartbeat CPU 0 instructions: 530000000 cycles: 631457731 heartbeat IPC: 0.918846 cumulative IPC: 0.838076 (Simulation time: 0 hr 57 min 9 sec) 
Heartbeat CPU 0 instructions: 540000000 cycles: 642157554 heartbeat IPC: 0.934595 cumulative IPC: 0.839685 (Simulation time: 0 hr 57 min 58 sec) 
Heartbeat CPU 0 instructions: 550000003 cycles: 652763728 heartbeat IPC: 0.942847 cumulative IPC: 0.841362 (Simulation time: 0 hr 58 min 47 sec) 
Heartbeat CPU 0 instructions: 560000001 cycles: 663443906 heartbeat IPC: 0.936314 cumulative IPC: 0.842891 (Simulation time: 0 hr 59 min 37 sec) 
Heartbeat CPU 0 instructions: 570000004 cycles: 674203665 heartbeat IPC: 0.929389 cumulative IPC: 0.844272 (Simulation time: 1 hr 0 min 25 sec) 
Heartbeat CPU 0 instructions: 580000004 cycles: 684765314 heartbeat IPC: 0.946822 cumulative IPC: 0.845854 (Simulation time: 1 hr 1 min 13 sec) 
Heartbeat CPU 0 instructions: 590000003 cycles: 695587408 heartbeat IPC: 0.924035 cumulative IPC: 0.847071 (Simulation time: 1 hr 2 min 3 sec) 
Heartbeat CPU 0 instructions: 600000003 cycles: 706317592 heartbeat IPC: 0.93195 cumulative IPC: 0.848361 (Simulation time: 1 hr 2 min 50 sec) 
Heartbeat CPU 0 instructions: 610000004 cycles: 716844398 heartbeat IPC: 0.949956 cumulative IPC: 0.849853 (Simulation time: 1 hr 3 min 37 sec) 
Heartbeat CPU 0 instructions: 620000000 cycles: 727812619 heartbeat IPC: 0.911725 cumulative IPC: 0.850786 (Simulation time: 1 hr 4 min 25 sec) 
Heartbeat CPU 0 instructions: 630000002 cycles: 738316323 heartbeat IPC: 0.952045 cumulative IPC: 0.852227 (Simulation time: 1 hr 5 min 12 sec) 
Heartbeat CPU 0 instructions: 640000001 cycles: 748961971 heartbeat IPC: 0.939351 cumulative IPC: 0.853466 (Simulation time: 1 hr 5 min 59 sec) 
Heartbeat CPU 0 instructions: 650000001 cycles: 759674849 heartbeat IPC: 0.933456 cumulative IPC: 0.854594 (Simulation time: 1 hr 6 min 47 sec) 
Heartbeat CPU 0 instructions: 660000001 cycles: 770553383 heartbeat IPC: 0.919241 cumulative IPC: 0.855507 (Simulation time: 1 hr 7 min 35 sec) 
Heartbeat CPU 0 instructions: 670000002 cycles: 781317505 heartbeat IPC: 0.929012 cumulative IPC: 0.85652 (Simulation time: 1 hr 8 min 23 sec) 
Heartbeat CPU 0 instructions: 680000002 cycles: 792363177 heartbeat IPC: 0.905332 cumulative IPC: 0.857201 (Simulation time: 1 hr 9 min 11 sec) 
Heartbeat CPU 0 instructions: 690000000 cycles: 803087374 heartbeat IPC: 0.932471 cumulative IPC: 0.858206 (Simulation time: 1 hr 9 min 57 sec) 
Heartbeat CPU 0 instructions: 700000004 cycles: 814054805 heartbeat IPC: 0.911791 cumulative IPC: 0.858928 (Simulation time: 1 hr 10 min 43 sec) 
Heartbeat CPU 0 instructions: 710000001 cycles: 825100828 heartbeat IPC: 0.905303 cumulative IPC: 0.859549 (Simulation time: 1 hr 11 min 29 sec) 
Heartbeat CPU 0 instructions: 720000001 cycles: 835909571 heartbeat IPC: 0.925177 cumulative IPC: 0.860398 (Simulation time: 1 hr 12 min 10 sec) 
Heartbeat CPU 0 instructions: 730000001 cycles: 846862646 heartbeat IPC: 0.912986 cumulative IPC: 0.861079 (Simulation time: 1 hr 12 min 52 sec) 
Heartbeat CPU 0 instructions: 740000000 cycles: 857790669 heartbeat IPC: 0.915079 cumulative IPC: 0.861767 (Simulation time: 1 hr 13 min 33 sec) 
Heartbeat CPU 0 instructions: 750000004 cycles: 868619932 heartbeat IPC: 0.923424 cumulative IPC: 0.862536 (Simulation time: 1 hr 14 min 13 sec) 
Heartbeat CPU 0 instructions: 760000003 cycles: 879567629 heartbeat IPC: 0.913434 cumulative IPC: 0.863169 (Simulation time: 1 hr 14 min 53 sec) 
Heartbeat CPU 0 instructions: 770000000 cycles: 890369487 heartbeat IPC: 0.925766 cumulative IPC: 0.863929 (Simulation time: 1 hr 15 min 32 sec) 
Heartbeat CPU 0 instructions: 780000000 cycles: 901722147 heartbeat IPC: 0.880851 cumulative IPC: 0.864142 (Simulation time: 1 hr 16 min 12 sec) 
Heartbeat CPU 0 instructions: 790000000 cycles: 912823050 heartbeat IPC: 0.900828 cumulative IPC: 0.864588 (Simulation time: 1 hr 16 min 52 sec) 
Heartbeat CPU 0 instructions: 800000000 cycles: 923649225 heartbeat IPC: 0.923687 cumulative IPC: 0.865281 (Simulation time: 1 hr 17 min 31 sec) 
Heartbeat CPU 0 instructions: 810000000 cycles: 934151013 heartbeat IPC: 0.952219 cumulative IPC: 0.866259 (Simulation time: 1 hr 18 min 10 sec) 
Heartbeat CPU 0 instructions: 820000001 cycles: 944485935 heartbeat IPC: 0.967593 cumulative IPC: 0.867368 (Simulation time: 1 hr 18 min 48 sec) 
Heartbeat CPU 0 instructions: 830000003 cycles: 954961223 heartbeat IPC: 0.954628 cumulative IPC: 0.868325 (Simulation time: 1 hr 19 min 27 sec) 
Heartbeat CPU 0 instructions: 840000000 cycles: 965321269 heartbeat IPC: 0.965246 cumulative IPC: 0.869366 (Simulation time: 1 hr 20 min 4 sec) 
Heartbeat CPU 0 instructions: 850000001 cycles: 975371183 heartbeat IPC: 0.995034 cumulative IPC: 0.870661 (Simulation time: 1 hr 20 min 41 sec) 
Heartbeat CPU 0 instructions: 860000000 cycles: 986109725 heartbeat IPC: 0.931225 cumulative IPC: 0.871321 (Simulation time: 1 hr 21 min 19 sec) 
Heartbeat CPU 0 instructions: 870000000 cycles: 996676853 heartbeat IPC: 0.946331 cumulative IPC: 0.872116 (Simulation time: 1 hr 21 min 57 sec) 
Heartbeat CPU 0 instructions: 880000000 cycles: 1007445444 heartbeat IPC: 0.928627 cumulative IPC: 0.87272 (Simulation time: 1 hr 22 min 36 sec) 
Heartbeat CPU 0 instructions: 890000000 cycles: 1018537825 heartbeat IPC: 0.90152 cumulative IPC: 0.873034 (Simulation time: 1 hr 23 min 15 sec) 
Heartbeat CPU 0 instructions: 900000002 cycles: 1029374269 heartbeat IPC: 0.922812 cumulative IPC: 0.873558 (Simulation time: 1 hr 23 min 53 sec) 
Heartbeat CPU 0 instructions: 910000001 cycles: 1039964873 heartbeat IPC: 0.944233 cumulative IPC: 0.874278 (Simulation time: 1 hr 24 min 31 sec) 
Heartbeat CPU 0 instructions: 920000000 cycles: 1050953906 heartbeat IPC: 0.909998 cumulative IPC: 0.874652 (Simulation time: 1 hr 25 min 9 sec) 
Heartbeat CPU 0 instructions: 930000000 cycles: 1061768320 heartbeat IPC: 0.924692 cumulative IPC: 0.875162 (Simulation time: 1 hr 25 min 48 sec) 
Heartbeat CPU 0 instructions: 940000001 cycles: 1072721310 heartbeat IPC: 0.912993 cumulative IPC: 0.875548 (Simulation time: 1 hr 26 min 26 sec) 
Heartbeat CPU 0 instructions: 950000002 cycles: 1083933779 heartbeat IPC: 0.891864 cumulative IPC: 0.875717 (Simulation time: 1 hr 27 min 5 sec) 
Heartbeat CPU 0 instructions: 960000001 cycles: 1094811196 heartbeat IPC: 0.919336 cumulative IPC: 0.87615 (Simulation time: 1 hr 27 min 43 sec) 
Heartbeat CPU 0 instructions: 970000001 cycles: 1105616756 heartbeat IPC: 0.925449 cumulative IPC: 0.876632 (Simulation time: 1 hr 28 min 21 sec) 
Heartbeat CPU 0 instructions: 980000000 cycles: 1116715996 heartbeat IPC: 0.900962 cumulative IPC: 0.876874 (Simulation time: 1 hr 29 min 0 sec) 
Heartbeat CPU 0 instructions: 990000002 cycles: 1127622127 heartbeat IPC: 0.916916 cumulative IPC: 0.877261 (Simulation time: 1 hr 29 min 38 sec) 
Heartbeat CPU 0 instructions: 1000000000 cycles: 1138495556 heartbeat IPC: 0.919673 cumulative IPC: 0.877667 (Simulation time: 1 hr 30 min 16 sec) 
Finished CPU 0 instructions: 1000000000 cycles: 1139434178 cumulative IPC: 0.877629 (Simulation time: 1 hr 30 min 20 sec) 

ChampSim completed all CPUs

Region of Interest Statistics

CPU 0 cumulative IPC: 0.877629 instructions: 1000000000 cycles: 1139434178
cpu0_DTLB TOTAL     ACCESS:  223144133  HIT:  222589774  MISS:     554359
cpu0_DTLB LOAD      ACCESS:  150892499  HIT:  150420425  MISS:     472074
cpu0_DTLB RFO       ACCESS:   72251634  HIT:   72169349  MISS:      82285
cpu0_DTLB PREFETCH  ACCESS:          0  HIT:          0  MISS:          0
cpu0_DTLB WRITEBACK ACCESS:          0  HIT:          0  MISS:          0
cpu0_DTLB TRANSLATION ACCESS:          0  HIT:          0  MISS:          0
cpu0_DTLB PREFETCH  REQUESTED:          0  ISSUED:          0  USEFUL:          0  USELESS:          0
cpu0_DTLB AVERAGE MISS LATENCY: 12.6086 cycles
cpu0_ITLB TOTAL     ACCESS:   78446204  HIT:   78443503  MISS:       2701
cpu0_ITLB LOAD      ACCESS:   78446204  HIT:   78443503  MISS:       2701
cpu0_ITLB RFO       ACCESS:          0  HIT:          0  MISS:          0
cpu0_ITLB PREFETCH  ACCESS:          0  HIT:          0  MISS:          0
cpu0_ITLB WRITEBACK ACCESS:          0  HIT:          0  MISS:          0
cpu0_ITLB TRANSLATION ACCESS:          0  HIT:          0  MISS:          0
cpu0_ITLB PREFETCH  REQUESTED:          0  ISSUED:          0  USEFUL:          0  USELESS:          0
cpu0_ITLB AVERAGE MISS LATENCY: 24.8545 cycles
cpu0_L1I TOTAL     ACCESS:  106893332  HIT:  103034514  MISS:    3858818
cpu0_L1I LOAD      ACCESS:  106893332  HIT:  103034514  MISS:    3858818
cpu0_L1I RFO       ACCESS:          0  HIT:          0  MISS:          0
cpu0_L1I PREFETCH  ACCESS:          0  HIT:          0  MISS:          0
cpu0_L1I WRITEBACK ACCESS:          0  HIT:          0  MISS:          0
cpu0_L1I TRANSLATION ACCESS:          0  HIT:          0  MISS:          0
cpu0_L1I PREFETCH  REQUESTED:          0  ISSUED:          0  USEFUL:          0  USELESS:          0
cpu0_L1I AVERAGE MISS LATENCY: 16.3029 cycles
cpu0_STLB TOTAL     ACCESS:     557060  HIT:     508361  MISS:      48699
cpu0_STLB LOAD      ACCESS:     474775  HIT:     439224  MISS:      35551
cpu0_STLB RFO       ACCESS:      82285  HIT:      69137  MISS:      13148
cpu0_STLB PREFETCH  ACCESS:          0  HIT:          0  MISS:          0
cpu0_STLB WRITEBACK ACCESS:          0  HIT:          0  MISS:          0
cpu0_STLB TRANSLATION ACCESS:          0  HIT:          0  MISS:          0
cpu0_STLB PREFETCH  REQUESTED:          0  ISSUED:          0  USEFUL:          0  USELESS:          0
cpu0_STLB AVERAGE MISS LATENCY: 41.9004 cycles
cpu0_L1D TOTAL     ACCESS:  430892741  HIT:  423518196  MISS:    7374545
cpu0_L1D LOAD      ACCESS:  152240175  HIT:  149987607  MISS:    2252568
cpu0_L1D RFO       ACCESS:  127590837  HIT:  125093320  MISS:    2497517
cpu0_L1D PREFETCH  ACCESS:  151013128  HIT:  148406692  MISS:    2606436
cpu0_L1D WRITEBACK ACCESS:          0  HIT:          0  MISS:          0
cpu0_L1D TRANSLATION ACCESS:      48601  HIT:      30577  MISS:      18024
cpu0_L1D PREFETCH  REQUESTED:  152470457  ISSUED:  152059272  USEFUL:    2077168  USELESS:     712625
cpu0_L1D AVERAGE MISS LATENCY: 132.033 cycles
cpu0_L2C TOTAL     ACCESS:   15638472  HIT:   12577921  MISS:    3060551
cpu0_L2C LOAD      ACCESS:    5930392  HIT:    4935964  MISS:     994428
cpu0_L2C RFO       ACCESS:    2494332  HIT:    1408679  MISS:    1085653
cpu0_L2C PREFETCH  ACCESS:    3705530  HIT:    2732696  MISS:     972834
cpu0_L2C WRITEBACK ACCESS:    3490194  HIT:    3484182  MISS:       6012
cpu0_L2C TRANSLATION ACCESS:      18024  HIT:      16400  MISS:       1624
cpu0_L2C PREFETCH  REQUESTED:    1047721  ISSUED:     932896  USEFUL:      41067  USELESS:      24530
cpu0_L2C AVERAGE MISS LATENCY: 297.028 cycles
LLC TOTAL     ACCESS:    4541390  HIT:    3226769  MISS:    1314621
LLC LOAD      ACCESS:     994411  HIT:     826158  MISS:     168253
LLC RFO       ACCESS:    1085634  HIT:     324517  MISS:     761117
LLC PREFETCH  ACCESS:     974411  HIT:     708904  MISS:     265507
LLC WRITEBACK ACCESS:    1485310  HIT:    1365610  MISS:     119700
LLC TRANSLATION ACCESS:       1624  HIT:       1580  MISS:         44
LLC PREFETCH  REQUESTED:          0  ISSUED:          0  USEFUL:          0  USELESS:          0
LLC AVERAGE MISS LATENCY: 629.151 cycles

DRAM Statistics
 CHANNEL 0
 RQ ROW_BUFFER_HIT:     190943  ROW_BUFFER_MISS:    1003891
 DBUS AVG_CONGESTED_CYCLE:    3.93406
 WQ ROW_BUFFER_HIT:      73998  ROW_BUFFER_MISS:     890717  FULL:          0


CPU 0 Branch Prediction Accuracy: 89.3165% MPKI: 20.0625 Average ROB Occupancy at Mispredict: 16.3362
Branch type MPKI
BRANCH_DIRECT_JUMP: 0.001443
BRANCH_INDIRECT: 0.00018
BRANCH_CONDITIONAL: 20.0357
BRANCH_DIRECT_CALL: 0.002422
BRANCH_INDIRECT_CALL: 0.018167
BRANCH_RETURN: 0.004597

