
*** ChampSim Multicore Out-of-Order Simulator ***

Warmup Instructions: 1000000
Simulation Instructions: 1000000000
Number of CPUs: 1
Off-chip DRAM Size: 4 GiB Channels: 1 Width: 64-bit Data Rate: 3200 MT/s

VirtualMemory physical capacity: 8588881920 num_ppages: 2096895
VirtualMemory page size: 4096 log2_page_size: 12

CPU 0 runs tracer/pin/traces/spec2k17/657.xz_s-3167B.champsimtrace.xz
Basic BTB sets: 1024 ways: 8 indirect buffer size: 4096 RAS size: 64
cpu0_L1D next line prefetcher
cpu0_L2C IP-based stride prefetcher
WARNING: The extended signature CACHE::prefetch_line(ip, base_addr, pf_addr, fill_this_level, prefetch_metadata) is deprecated.
WARNING: Use CACHE::prefetch_line(pf_addr, fill_this_level, prefetch_metadata) instead.

Warmup complete CPU 0 instructions: 1000002 cycles: 250248 (Simulation time: 0 hr 0 min 3 sec) 

Heartbeat CPU 0 instructions: 10000002 cycles: 8580452 heartbeat IPC: 1.16544 cumulative IPC: 1.08041 (Simulation time: 0 hr 0 min 48 sec) 
Heartbeat CPU 0 instructions: 20000000 cycles: 15346348 heartbeat IPC: 1.478 cumulative IPC: 1.2586 (Simulation time: 0 hr 1 min 32 sec) 
Heartbeat CPU 0 instructions: 30000000 cycles: 23432716 heartbeat IPC: 1.23665 cumulative IPC: 1.25095 (Simulation time: 0 hr 2 min 17 sec) 
Heartbeat CPU 0 instructions: 40000001 cycles: 32555656 heartbeat IPC: 1.09614 cumulative IPC: 1.20723 (Simulation time: 0 hr 3 min 3 sec) 
Heartbeat CPU 0 instructions: 50000002 cycles: 41430080 heartbeat IPC: 1.12683 cumulative IPC: 1.1899 (Simulation time: 0 hr 3 min 48 sec) 
Heartbeat CPU 0 instructions: 60000003 cycles: 49263988 heartbeat IPC: 1.2765 cumulative IPC: 1.20374 (Simulation time: 0 hr 4 min 32 sec) 
Heartbeat CPU 0 instructions: 70000000 cycles: 56403063 heartbeat IPC: 1.40074 cumulative IPC: 1.22879 (Simulation time: 0 hr 5 min 14 sec) 
Heartbeat CPU 0 instructions: 80000002 cycles: 63887858 heartbeat IPC: 1.33604 cumulative IPC: 1.2414 (Simulation time: 0 hr 5 min 57 sec) 
Heartbeat CPU 0 instructions: 90000001 cycles: 70521871 heartbeat IPC: 1.50738 cumulative IPC: 1.26651 (Simulation time: 0 hr 6 min 38 sec) 
Heartbeat CPU 0 instructions: 100000001 cycles: 77994218 heartbeat IPC: 1.33827 cumulative IPC: 1.27341 (Simulation time: 0 hr 7 min 21 sec) 
Heartbeat CPU 0 instructions: 110000001 cycles: 85322707 heartbeat IPC: 1.36454 cumulative IPC: 1.28126 (Simulation time: 0 hr 8 min 3 sec) 
Heartbeat CPU 0 instructions: 120000002 cycles: 91803072 heartbeat IPC: 1.54312 cumulative IPC: 1.2998 (Simulation time: 0 hr 8 min 44 sec) 
Heartbeat CPU 0 instructions: 130000003 cycles: 97309671 heartbeat IPC: 1.816 cumulative IPC: 1.32908 (Simulation time: 0 hr 9 min 23 sec) 
Heartbeat CPU 0 instructions: 140000003 cycles: 104030675 heartbeat IPC: 1.48787 cumulative IPC: 1.33937 (Simulation time: 0 hr 10 min 4 sec) 
Heartbeat CPU 0 instructions: 150000000 cycles: 109713923 heartbeat IPC: 1.75956 cumulative IPC: 1.36118 (Simulation time: 0 hr 10 min 43 sec) 
Heartbeat CPU 0 instructions: 160000002 cycles: 115092037 heartbeat IPC: 1.85939 cumulative IPC: 1.38451 (Simulation time: 0 hr 11 min 22 sec) 
Heartbeat CPU 0 instructions: 170000001 cycles: 122577327 heartbeat IPC: 1.33595 cumulative IPC: 1.38154 (Simulation time: 0 hr 12 min 3 sec) 
Heartbeat CPU 0 instructions: 180000003 cycles: 132015674 heartbeat IPC: 1.05951 cumulative IPC: 1.35847 (Simulation time: 0 hr 12 min 47 sec) 
Heartbeat CPU 0 instructions: 190000004 cycles: 143209555 heartbeat IPC: 0.893345 cumulative IPC: 1.32205 (Simulation time: 0 hr 13 min 35 sec) 
Heartbeat CPU 0 instructions: 200000000 cycles: 153310047 heartbeat IPC: 0.99005 cumulative IPC: 1.30015 (Simulation time: 0 hr 14 min 19 sec) 
Heartbeat CPU 0 instructions: 210000000 cycles: 163149385 heartbeat IPC: 1.01633 cumulative IPC: 1.283 (Simulation time: 0 hr 15 min 1 sec) 
Heartbeat CPU 0 instructions: 220000001 cycles: 171736012 heartbeat IPC: 1.1646 cumulative IPC: 1.27707 (Simulation time: 0 hr 15 min 42 sec) 
Heartbeat CPU 0 instructions: 230000001 cycles: 179359012 heartbeat IPC: 1.31182 cumulative IPC: 1.27855 (Simulation time: 0 hr 16 min 22 sec) 
Heartbeat CPU 0 instructions: 240000002 cycles: 186970680 heartbeat IPC: 1.31377 cumulative IPC: 1.27999 (Simulation time: 0 hr 17 min 2 sec) 
Heartbeat CPU 0 instructions: 250000000 cycles: 193826256 heartbeat IPC: 1.45867 cumulative IPC: 1.28632 (Simulation time: 0 hr 17 min 40 sec) 
Heartbeat CPU 0 instructions: 260000000 cycles: 199573322 heartbeat IPC: 1.74002 cumulative IPC: 1.2994 (Simulation time: 0 hr 18 min 17 sec) 
Heartbeat CPU 0 instructions: 270000000 cycles: 205021275 heartbeat IPC: 1.83555 cumulative IPC: 1.31366 (Simulation time: 0 hr 18 min 52 sec) 
Heartbeat CPU 0 instructions: 280000000 cycles: 214582424 heartbeat IPC: 1.0459 cumulative IPC: 1.30172 (Simulation time: 0 hr 19 min 35 sec) 
Heartbeat CPU 0 instructions: 290000001 cycles: 222240021 heartbeat IPC: 1.30589 cumulative IPC: 1.30186 (Simulation time: 0 hr 20 min 14 sec) 
Heartbeat CPU 0 instructions: 300000002 cycles: 228755156 heartbeat IPC: 1.53489 cumulative IPC: 1.30851 (Simulation time: 0 hr 20 min 51 sec) 
Heartbeat CPU 0 instructions: 310000001 cycles: 235265578 heartbeat IPC: 1.536 cumulative IPC: 1.31481 (Simulation time: 0 hr 21 min 27 sec) 
Heartbeat CPU 0 instructions: 320000004 cycles: 243003150 heartbeat IPC: 1.2924 cumulative IPC: 1.31409 (Simulation time: 0 hr 22 min 5 sec) 
Heartbeat CPU 0 instructions: 330000004 cycles: 249184263 heartbeat IPC: 1.61783 cumulative IPC: 1.32164 (Simulation time: 0 hr 22 min 41 sec) 
Heartbeat CPU 0 instructions: 340000001 cycles: 257059208 heartbeat IPC: 1.26985 cumulative IPC: 1.32005 (Simulation time: 0 hr 23 min 20 sec) 
Heartbeat CPU 0 instructions: 350000002 cycles: 265599243 heartbeat IPC: 1.17096 cumulative IPC: 1.31525 (Simulation time: 0 hr 23 min 59 sec) 
Heartbeat CPU 0 instructions: 360000002 cycles: 274234287 heartbeat IPC: 1.15807 cumulative IPC: 1.3103 (Simulation time: 0 hr 24 min 41 sec) 
Heartbeat CPU 0 instructions: 370000004 cycles: 281736296 heartbeat IPC: 1.33298 cumulative IPC: 1.3109 (Simulation time: 0 hr 25 min 19 sec) 
Heartbeat CPU 0 instructions: 380000003 cycles: 288686078 heartbeat IPC: 1.43889 cumulative IPC: 1.31398 (Simulation time: 0 hr 25 min 54 sec) 
Heartbeat CPU 0 instructions: 390000000 cycles: 297594923 heartbeat IPC: 1.12248 cumulative IPC: 1.30825 (Simulation time: 0 hr 26 min 35 sec) 
Heartbeat CPU 0 instructions: 400000001 cycles: 305957194 heartbeat IPC: 1.19585 cumulative IPC: 1.30517 (Simulation time: 0 hr 27 min 13 sec) 
Heartbeat CPU 0 instructions: 410000004 cycles: 314727178 heartbeat IPC: 1.14025 cumulative IPC: 1.30057 (Simulation time: 0 hr 27 min 52 sec) 
Heartbeat CPU 0 instructions: 420000002 cycles: 323778277 heartbeat IPC: 1.10484 cumulative IPC: 1.2951 (Simulation time: 0 hr 28 min 31 sec) 
Heartbeat CPU 0 instructions: 430000000 cycles: 331756330 heartbeat IPC: 1.25344 cumulative IPC: 1.29409 (Simulation time: 0 hr 29 min 10 sec) 
Heartbeat CPU 0 instructions: 440000004 cycles: 339650592 heartbeat IPC: 1.26674 cumulative IPC: 1.29346 (Simulation time: 0 hr 29 min 50 sec) 
Heartbeat CPU 0 instructions: 450000003 cycles: 347424043 heartbeat IPC: 1.28643 cumulative IPC: 1.2933 (Simulation time: 0 hr 30 min 29 sec) 
Heartbeat CPU 0 instructions: 460000000 cycles: 355066311 heartbeat IPC: 1.30851 cumulative IPC: 1.29363 (Simulation time: 0 hr 31 min 8 sec) 
Heartbeat CPU 0 instructions: 470000000 cycles: 362903217 heartbeat IPC: 1.27601 cumulative IPC: 1.29325 (Simulation time: 0 hr 31 min 47 sec) 
Heartbeat CPU 0 instructions: 480000003 cycles: 369773191 heartbeat IPC: 1.45561 cumulative IPC: 1.29627 (Simulation time: 0 hr 32 min 23 sec) 
Heartbeat CPU 0 instructions: 490000003 cycles: 376365527 heartbeat IPC: 1.51691 cumulative IPC: 1.30013 (Simulation time: 0 hr 33 min 1 sec) 
Heartbeat CPU 0 instructions: 500000002 cycles: 383719989 heartbeat IPC: 1.35972 cumulative IPC: 1.30128 (Simulation time: 0 hr 33 min 41 sec) 
Heartbeat CPU 0 instructions: 510000000 cycles: 404315215 heartbeat IPC: 0.485549 cumulative IPC: 1.2597 (Simulation time: 0 hr 35 min 16 sec) 
Heartbeat CPU 0 instructions: 520000002 cycles: 412147760 heartbeat IPC: 1.27672 cumulative IPC: 1.26002 (Simulation time: 0 hr 35 min 55 sec) 
Heartbeat CPU 0 instructions: 530000000 cycles: 419294836 heartbeat IPC: 1.39917 cumulative IPC: 1.2624 (Simulation time: 0 hr 36 min 35 sec) 
Heartbeat CPU 0 instructions: 540000002 cycles: 426277940 heartbeat IPC: 1.43203 cumulative IPC: 1.26518 (Simulation time: 0 hr 37 min 14 sec) 
Heartbeat CPU 0 instructions: 550000001 cycles: 436487366 heartbeat IPC: 0.979487 cumulative IPC: 1.25849 (Simulation time: 0 hr 37 min 57 sec) 
Heartbeat CPU 0 instructions: 560000003 cycles: 443914200 heartbeat IPC: 1.34647 cumulative IPC: 1.25996 (Simulation time: 0 hr 38 min 35 sec) 
Heartbeat CPU 0 instructions: 570000004 cycles: 451332325 heartbeat IPC: 1.34805 cumulative IPC: 1.26141 (Simulation time: 0 hr 39 min 13 sec) 
Heartbeat CPU 0 instructions: 580000004 cycles: 458726442 heartbeat IPC: 1.35243 cumulative IPC: 1.26288 (Simulation time: 0 hr 39 min 52 sec) 
Heartbeat CPU 0 instructions: 590000000 cycles: 466245760 heartbeat IPC: 1.32991 cumulative IPC: 1.26396 (Simulation time: 0 hr 40 min 30 sec) 
Heartbeat CPU 0 instructions: 600000000 cycles: 474140530 heartbeat IPC: 1.26666 cumulative IPC: 1.26401 (Simulation time: 0 hr 41 min 9 sec) 
Heartbeat CPU 0 instructions: 610000004 cycles: 482041750 heartbeat IPC: 1.26563 cumulative IPC: 1.26403 (Simulation time: 0 hr 41 min 49 sec) 
Heartbeat CPU 0 instructions: 620000001 cycles: 489334967 heartbeat IPC: 1.37114 cumulative IPC: 1.26563 (Simulation time: 0 hr 42 min 27 sec) 
Heartbeat CPU 0 instructions: 630000001 cycles: 497078623 heartbeat IPC: 1.29138 cumulative IPC: 1.26603 (Simulation time: 0 hr 43 min 5 sec) 
Heartbeat CPU 0 instructions: 640000003 cycles: 504762788 heartbeat IPC: 1.30138 cumulative IPC: 1.26657 (Simulation time: 0 hr 43 min 44 sec) 
Heartbeat CPU 0 instructions: 650000001 cycles: 511184262 heartbeat IPC: 1.55727 cumulative IPC: 1.27022 (Simulation time: 0 hr 44 min 20 sec) 
Heartbeat CPU 0 instructions: 660000003 cycles: 518885939 heartbeat IPC: 1.29842 cumulative IPC: 1.27064 (Simulation time: 0 hr 44 min 55 sec) 
Heartbeat CPU 0 instructions: 670000004 cycles: 526471240 heartbeat IPC: 1.31834 cumulative IPC: 1.27133 (Simulation time: 0 hr 45 min 32 sec) 
Heartbeat CPU 0 instructions: 680000002 cycles: 533592771 heartbeat IPC: 1.40419 cumulative IPC: 1.2731 (Simulation time: 0 hr 46 min 6 sec) 
Heartbeat CPU 0 instructions: 690000004 cycles: 542140352 heartbeat IPC: 1.16992 cumulative IPC: 1.27148 (Simulation time: 0 hr 46 min 41 sec) 
Heartbeat CPU 0 instructions: 700000000 cycles: 549570625 heartbeat IPC: 1.34584 cumulative IPC: 1.27248 (Simulation time: 0 hr 47 min 16 sec) 
Heartbeat CPU 0 instructions: 710000000 cycles: 557374265 heartbeat IPC: 1.28145 cumulative IPC: 1.27261 (Simulation time: 0 hr 47 min 53 sec) 
Heartbeat CPU 0 instructions: 720000002 cycles: 565101537 heartbeat IPC: 1.29412 cumulative IPC: 1.2729 (Simulation time: 0 hr 48 min 29 sec) 
Heartbeat CPU 0 instructions: 730000004 cycles: 572219902 heartbeat IPC: 1.40482 cumulative IPC: 1.27454 (Simulation time: 0 hr 49 min 4 sec) 
Heartbeat CPU 0 instructions: 740000002 cycles: 579822846 heartbeat IPC: 1.31528 cumulative IPC: 1.27508 (Simulation time: 0 hr 49 min 39 sec) 
Heartbeat CPU 0 instructions: 750000003 cycles: 585744668 heartbeat IPC: 1.68867 cumulative IPC: 1.27926 (Simulation time: 0 hr 50 min 15 sec) 
Heartbeat CPU 0 instructions: 760000000 cycles: 591138190 heartbeat IPC: 1.85408 cumulative IPC: 1.28451 (Simulation time: 0 hr 50 min 46 sec) 
Heartbeat CPU 0 instructions: 770000003 cycles: 596621159 heartbeat IPC: 1.82383 cumulative IPC: 1.28947 (Simulation time: 0 hr 51 min 18 sec) 
Heartbeat CPU 0 instructions: 780000004 cycles: 601920588 heartbeat IPC: 1.887 cumulative IPC: 1.29473 (Simulation time: 0 hr 51 min 48 sec) 
Heartbeat CPU 0 instructions: 790000000 cycles: 607407712 heartbeat IPC: 1.82245 cumulative IPC: 1.2995 (Simulation time: 0 hr 52 min 19 sec) 
Heartbeat CPU 0 instructions: 800000002 cycles: 612888674 heartbeat IPC: 1.8245 cumulative IPC: 1.3042 (Simulation time: 0 hr 52 min 50 sec) 
Heartbeat CPU 0 instructions: 810000002 cycles: 618413633 heartbeat IPC: 1.80997 cumulative IPC: 1.30872 (Simulation time: 0 hr 53 min 20 sec) 
Heartbeat CPU 0 instructions: 820000000 cycles: 623837467 heartbeat IPC: 1.84371 cumulative IPC: 1.31337 (Simulation time: 0 hr 53 min 51 sec) 
Heartbeat CPU 0 instructions: 830000001 cycles: 629539540 heartbeat IPC: 1.75375 cumulative IPC: 1.31736 (Simulation time: 0 hr 54 min 23 sec) 
Heartbeat CPU 0 instructions: 840000002 cycles: 634806525 heartbeat IPC: 1.89862 cumulative IPC: 1.32218 (Simulation time: 0 hr 54 min 54 sec) 
Heartbeat CPU 0 instructions: 850000003 cycles: 640533905 heartbeat IPC: 1.746 cumulative IPC: 1.32597 (Simulation time: 0 hr 55 min 25 sec) 
Heartbeat CPU 0 instructions: 860000004 cycles: 646038601 heartbeat IPC: 1.81663 cumulative IPC: 1.33016 (Simulation time: 0 hr 55 min 56 sec) 
Heartbeat CPU 0 instructions: 870000000 cycles: 651666550 heartbeat IPC: 1.77685 cumulative IPC: 1.33402 (Simulation time: 0 hr 56 min 27 sec) 
Heartbeat CPU 0 instructions: 880000000 cycles: 657071759 heartbeat IPC: 1.85007 cumulative IPC: 1.33826 (Simulation time: 0 hr 56 min 58 sec) 
Heartbeat CPU 0 instructions: 890000004 cycles: 662436989 heartbeat IPC: 1.86385 cumulative IPC: 1.34252 (Simulation time: 0 hr 57 min 28 sec) 
Heartbeat CPU 0 instructions: 900000000 cycles: 667941886 heartbeat IPC: 1.81656 cumulative IPC: 1.34643 (Simulation time: 0 hr 57 min 58 sec) 
Heartbeat CPU 0 instructions: 910000004 cycles: 673407394 heartbeat IPC: 1.82966 cumulative IPC: 1.35035 (Simulation time: 0 hr 58 min 30 sec) 
Heartbeat CPU 0 instructions: 920000001 cycles: 678950373 heartbeat IPC: 1.80408 cumulative IPC: 1.35406 (Simulation time: 0 hr 59 min 0 sec) 
Heartbeat CPU 0 instructions: 930000001 cycles: 686365172 heartbeat IPC: 1.34865 cumulative IPC: 1.354 (Simulation time: 0 hr 59 min 34 sec) 
Heartbeat CPU 0 instructions: 940000001 cycles: 694444386 heartbeat IPC: 1.23774 cumulative IPC: 1.35265 (Simulation time: 1 hr 0 min 10 sec) 
Heartbeat CPU 0 instructions: 950000000 cycles: 703478268 heartbeat IPC: 1.10694 cumulative IPC: 1.34949 (Simulation time: 1 hr 0 min 46 sec) 
Heartbeat CPU 0 instructions: 960000001 cycles: 709413951 heartbeat IPC: 1.68473 cumulative IPC: 1.3523 (Simulation time: 1 hr 1 min 16 sec) 
Heartbeat CPU 0 instructions: 970000002 cycles: 716527178 heartbeat IPC: 1.40583 cumulative IPC: 1.35283 (Simulation time: 1 hr 1 min 49 sec) 
Heartbeat CPU 0 instructions: 980000001 cycles: 726477705 heartbeat IPC: 1.00497 cumulative IPC: 1.34806 (Simulation time: 1 hr 2 min 25 sec) 
Heartbeat CPU 0 instructions: 990000000 cycles: 736757430 heartbeat IPC: 0.972789 cumulative IPC: 1.34282 (Simulation time: 1 hr 3 min 1 sec) 
Heartbeat CPU 0 instructions: 1000000000 cycles: 745026966 heartbeat IPC: 1.20926 cumulative IPC: 1.34134 (Simulation time: 1 hr 3 min 36 sec) 
Finished CPU 0 instructions: 1000000000 cycles: 745458220 cumulative IPC: 1.34146 (Simulation time: 1 hr 3 min 39 sec) 

ChampSim completed all CPUs

Region of Interest Statistics

CPU 0 cumulative IPC: 1.34146 instructions: 1000000000 cycles: 745458220
cpu0_DTLB TOTAL     ACCESS:  177267801  HIT:  172379886  MISS:    4887915
cpu0_DTLB LOAD      ACCESS:  138167826  HIT:  135889199  MISS:    2278627
cpu0_DTLB RFO       ACCESS:   39099975  HIT:   36490687  MISS:    2609288
cpu0_DTLB PREFETCH  ACCESS:          0  HIT:          0  MISS:          0
cpu0_DTLB WRITEBACK ACCESS:          0  HIT:          0  MISS:          0
cpu0_DTLB TRANSLATION ACCESS:          0  HIT:          0  MISS:          0
cpu0_DTLB PREFETCH  REQUESTED:          0  ISSUED:          0  USEFUL:          0  USELESS:          0
cpu0_DTLB AVERAGE MISS LATENCY: 10.6549 cycles
cpu0_ITLB TOTAL     ACCESS:   82683917  HIT:   82683905  MISS:         12
cpu0_ITLB LOAD      ACCESS:   82683917  HIT:   82683905  MISS:         12
cpu0_ITLB RFO       ACCESS:          0  HIT:          0  MISS:          0
cpu0_ITLB PREFETCH  ACCESS:          0  HIT:          0  MISS:          0
cpu0_ITLB WRITEBACK ACCESS:          0  HIT:          0  MISS:          0
cpu0_ITLB TRANSLATION ACCESS:          0  HIT:          0  MISS:          0
cpu0_ITLB PREFETCH  REQUESTED:          0  ISSUED:          0  USEFUL:          0  USELESS:          0
cpu0_ITLB AVERAGE MISS LATENCY: 188.5 cycles
cpu0_L1I TOTAL     ACCESS:   19127603  HIT:   19126772  MISS:        831
cpu0_L1I LOAD      ACCESS:   19127603  HIT:   19126772  MISS:        831
cpu0_L1I RFO       ACCESS:          0  HIT:          0  MISS:          0
cpu0_L1I PREFETCH  ACCESS:          0  HIT:          0  MISS:          0
cpu0_L1I WRITEBACK ACCESS:          0  HIT:          0  MISS:          0
cpu0_L1I TRANSLATION ACCESS:          0  HIT:          0  MISS:          0
cpu0_L1I PREFETCH  REQUESTED:          0  ISSUED:          0  USEFUL:          0  USELESS:          0
cpu0_L1I AVERAGE MISS LATENCY: 151.692 cycles
cpu0_STLB TOTAL     ACCESS:    4887927  HIT:    4458515  MISS:     429412
cpu0_STLB LOAD      ACCESS:    2278639  HIT:    1932463  MISS:     346176
cpu0_STLB RFO       ACCESS:    2609288  HIT:    2526052  MISS:      83236
cpu0_STLB PREFETCH  ACCESS:          0  HIT:          0  MISS:          0
cpu0_STLB WRITEBACK ACCESS:          0  HIT:          0  MISS:          0
cpu0_STLB TRANSLATION ACCESS:          0  HIT:          0  MISS:          0
cpu0_STLB PREFETCH  REQUESTED:          0  ISSUED:          0  USEFUL:          0  USELESS:          0
cpu0_STLB AVERAGE MISS LATENCY: 18.7269 cycles
cpu0_L1D TOTAL     ACCESS:  333396951  HIT:  321972385  MISS:   11424566
cpu0_L1D LOAD      ACCESS:  135836329  HIT:  131345162  MISS:    4491167
cpu0_L1D RFO       ACCESS:   63726557  HIT:   61730613  MISS:    1995944
cpu0_L1D PREFETCH  ACCESS:  133405970  HIT:  128514469  MISS:    4891501
cpu0_L1D WRITEBACK ACCESS:          0  HIT:          0  MISS:          0
cpu0_L1D TRANSLATION ACCESS:     428095  HIT:     382141  MISS:      45954
cpu0_L1D PREFETCH  REQUESTED:  136012816  ISSUED:  134407563  USEFUL:    2609838  USELESS:    2343801
cpu0_L1D AVERAGE MISS LATENCY: 77.4127 cycles
cpu0_L2C TOTAL     ACCESS:   17525410  HIT:   13722277  MISS:    3803133
cpu0_L2C LOAD      ACCESS:    4436070  HIT:    2923041  MISS:    1513029
cpu0_L2C RFO       ACCESS:    1987867  HIT:    1459553  MISS:     528314
cpu0_L2C PREFETCH  ACCESS:    5534287  HIT:    3780004  MISS:    1754283
cpu0_L2C WRITEBACK ACCESS:    5521232  HIT:    5515019  MISS:       6213
cpu0_L2C TRANSLATION ACCESS:      45954  HIT:      44660  MISS:       1294
cpu0_L2C PREFETCH  REQUESTED:     771569  ISSUED:     595571  USEFUL:      26901  USELESS:      29340
cpu0_L2C AVERAGE MISS LATENCY: 200.456 cycles
LLC TOTAL     ACCESS:    5482629  HIT:    3727085  MISS:    1755544
LLC LOAD      ACCESS:    1512996  HIT:     876065  MISS:     636931
LLC RFO       ACCESS:     528301  HIT:     159459  MISS:     368842
LLC PREFETCH  ACCESS:    1755701  HIT:    1020260  MISS:     735441
LLC WRITEBACK ACCESS:    1684337  HIT:    1670112  MISS:      14225
LLC TRANSLATION ACCESS:       1294  HIT:       1189  MISS:        105
LLC PREFETCH  REQUESTED:          0  ISSUED:          0  USEFUL:          0  USELESS:          0
LLC AVERAGE MISS LATENCY: 376.669 cycles

DRAM Statistics
 CHANNEL 0
 RQ ROW_BUFFER_HIT:      95113  ROW_BUFFER_MISS:    1646098
 DBUS AVG_CONGESTED_CYCLE:    3.79528
 WQ ROW_BUFFER_HIT:     118524  ROW_BUFFER_MISS:     710149  FULL:          0


CPU 0 Branch Prediction Accuracy: 91.8231% MPKI: 12.3118 Average ROB Occupancy at Mispredict: 41.7218
Branch type MPKI
BRANCH_DIRECT_JUMP: 2.7e-05
BRANCH_INDIRECT: 0.754334
BRANCH_CONDITIONAL: 11.5553
BRANCH_DIRECT_CALL: 1.6e-05
BRANCH_INDIRECT_CALL: 0.00218
BRANCH_RETURN: 2.6e-05

