
*** ChampSim Multicore Out-of-Order Simulator ***

Warmup Instructions: 1000000
Simulation Instructions: 1000000000
Number of CPUs: 1
Off-chip DRAM Size: 4 GiB Channels: 1 Width: 64-bit Data Rate: 3200 MT/s

VirtualMemory physical capacity: 8588881920 num_ppages: 2096895
VirtualMemory page size: 4096 log2_page_size: 12

CPU 0 runs tracer/pin/traces/spec2k17/644.nab_s-5853B.champsimtrace.xz
Basic BTB sets: 1024 ways: 8 indirect buffer size: 4096 RAS size: 64
cpu0_L1D next line prefetcher
cpu0_L2C IP-based stride prefetcher
WARNING: The extended signature CACHE::prefetch_line(ip, base_addr, pf_addr, fill_this_level, prefetch_metadata) is deprecated.
WARNING: Use CACHE::prefetch_line(pf_addr, fill_this_level, prefetch_metadata) instead.

Warmup complete CPU 0 instructions: 1000004 cycles: 250095 (Simulation time: 0 hr 0 min 3 sec) 

Heartbeat CPU 0 instructions: 10000001 cycles: 6605555 heartbeat IPC: 1.51388 cumulative IPC: 1.4161 (Simulation time: 0 hr 0 min 50 sec) 
Heartbeat CPU 0 instructions: 20000001 cycles: 13686263 heartbeat IPC: 1.41229 cumulative IPC: 1.41409 (Simulation time: 0 hr 1 min 45 sec) 
Heartbeat CPU 0 instructions: 30000001 cycles: 20737275 heartbeat IPC: 1.41824 cumulative IPC: 1.41552 (Simulation time: 0 hr 2 min 34 sec) 
Heartbeat CPU 0 instructions: 40000002 cycles: 27798450 heartbeat IPC: 1.4162 cumulative IPC: 1.41569 (Simulation time: 0 hr 3 min 27 sec) 
Heartbeat CPU 0 instructions: 50000004 cycles: 34863562 heartbeat IPC: 1.41541 cumulative IPC: 1.41563 (Simulation time: 0 hr 4 min 18 sec) 
Heartbeat CPU 0 instructions: 60000000 cycles: 41941345 heartbeat IPC: 1.41287 cumulative IPC: 1.41516 (Simulation time: 0 hr 5 min 11 sec) 
Heartbeat CPU 0 instructions: 70000000 cycles: 48992871 heartbeat IPC: 1.41813 cumulative IPC: 1.41559 (Simulation time: 0 hr 6 min 5 sec) 
Heartbeat CPU 0 instructions: 80000003 cycles: 56051784 heartbeat IPC: 1.41665 cumulative IPC: 1.41573 (Simulation time: 0 hr 7 min 0 sec) 
Heartbeat CPU 0 instructions: 90000002 cycles: 63118572 heartbeat IPC: 1.41507 cumulative IPC: 1.41565 (Simulation time: 0 hr 7 min 54 sec) 
Heartbeat CPU 0 instructions: 100000000 cycles: 70187128 heartbeat IPC: 1.41472 cumulative IPC: 1.41556 (Simulation time: 0 hr 8 min 48 sec) 
Heartbeat CPU 0 instructions: 110000000 cycles: 77243861 heartbeat IPC: 1.41709 cumulative IPC: 1.4157 (Simulation time: 0 hr 9 min 42 sec) 
Heartbeat CPU 0 instructions: 120000004 cycles: 84296974 heartbeat IPC: 1.41781 cumulative IPC: 1.41588 (Simulation time: 0 hr 10 min 36 sec) 
Heartbeat CPU 0 instructions: 130000004 cycles: 91339513 heartbeat IPC: 1.41994 cumulative IPC: 1.41619 (Simulation time: 0 hr 11 min 33 sec) 
Heartbeat CPU 0 instructions: 140000001 cycles: 98374631 heartbeat IPC: 1.42144 cumulative IPC: 1.41657 (Simulation time: 0 hr 12 min 28 sec) 
Heartbeat CPU 0 instructions: 150000004 cycles: 105417051 heartbeat IPC: 1.41997 cumulative IPC: 1.41679 (Simulation time: 0 hr 13 min 22 sec) 
Heartbeat CPU 0 instructions: 160000000 cycles: 112479883 heartbeat IPC: 1.41586 cumulative IPC: 1.41674 (Simulation time: 0 hr 14 min 18 sec) 
Heartbeat CPU 0 instructions: 170000004 cycles: 119553088 heartbeat IPC: 1.41379 cumulative IPC: 1.41656 (Simulation time: 0 hr 15 min 15 sec) 
Heartbeat CPU 0 instructions: 180000003 cycles: 126608857 heartbeat IPC: 1.41728 cumulative IPC: 1.4166 (Simulation time: 0 hr 16 min 14 sec) 
Heartbeat CPU 0 instructions: 190000001 cycles: 133678783 heartbeat IPC: 1.41444 cumulative IPC: 1.41649 (Simulation time: 0 hr 17 min 10 sec) 
Heartbeat CPU 0 instructions: 200000004 cycles: 140728218 heartbeat IPC: 1.41855 cumulative IPC: 1.41659 (Simulation time: 0 hr 18 min 6 sec) 
Heartbeat CPU 0 instructions: 210000002 cycles: 147779974 heartbeat IPC: 1.41809 cumulative IPC: 1.41666 (Simulation time: 0 hr 19 min 3 sec) 
Heartbeat CPU 0 instructions: 220000003 cycles: 154858265 heartbeat IPC: 1.41277 cumulative IPC: 1.41648 (Simulation time: 0 hr 20 min 1 sec) 
Heartbeat CPU 0 instructions: 230000001 cycles: 161905998 heartbeat IPC: 1.4189 cumulative IPC: 1.41659 (Simulation time: 0 hr 20 min 59 sec) 
Heartbeat CPU 0 instructions: 240000001 cycles: 168970813 heartbeat IPC: 1.41547 cumulative IPC: 1.41654 (Simulation time: 0 hr 21 min 59 sec) 
Heartbeat CPU 0 instructions: 250000002 cycles: 176060822 heartbeat IPC: 1.41044 cumulative IPC: 1.4163 (Simulation time: 0 hr 22 min 56 sec) 
Heartbeat CPU 0 instructions: 260000000 cycles: 183130878 heartbeat IPC: 1.41442 cumulative IPC: 1.41622 (Simulation time: 0 hr 23 min 55 sec) 
Heartbeat CPU 0 instructions: 270000002 cycles: 190177501 heartbeat IPC: 1.41912 cumulative IPC: 1.41633 (Simulation time: 0 hr 24 min 54 sec) 
Heartbeat CPU 0 instructions: 280000002 cycles: 197226255 heartbeat IPC: 1.41869 cumulative IPC: 1.41642 (Simulation time: 0 hr 25 min 51 sec) 
Heartbeat CPU 0 instructions: 290000000 cycles: 204280776 heartbeat IPC: 1.41753 cumulative IPC: 1.41645 (Simulation time: 0 hr 26 min 46 sec) 
Heartbeat CPU 0 instructions: 300000000 cycles: 211341643 heartbeat IPC: 1.41626 cumulative IPC: 1.41645 (Simulation time: 0 hr 27 min 42 sec) 
Heartbeat CPU 0 instructions: 310000004 cycles: 218431674 heartbeat IPC: 1.41043 cumulative IPC: 1.41625 (Simulation time: 0 hr 28 min 36 sec) 
Heartbeat CPU 0 instructions: 320000001 cycles: 225520747 heartbeat IPC: 1.41062 cumulative IPC: 1.41607 (Simulation time: 0 hr 29 min 31 sec) 
Heartbeat CPU 0 instructions: 330000000 cycles: 232685150 heartbeat IPC: 1.39579 cumulative IPC: 1.41545 (Simulation time: 0 hr 30 min 25 sec) 
Heartbeat CPU 0 instructions: 340000000 cycles: 239778052 heartbeat IPC: 1.40986 cumulative IPC: 1.41528 (Simulation time: 0 hr 31 min 20 sec) 
Heartbeat CPU 0 instructions: 350000000 cycles: 246878249 heartbeat IPC: 1.40841 cumulative IPC: 1.41509 (Simulation time: 0 hr 32 min 14 sec) 
Heartbeat CPU 0 instructions: 360000003 cycles: 253956244 heartbeat IPC: 1.41283 cumulative IPC: 1.41502 (Simulation time: 0 hr 33 min 7 sec) 
Heartbeat CPU 0 instructions: 370000003 cycles: 261043741 heartbeat IPC: 1.41094 cumulative IPC: 1.41491 (Simulation time: 0 hr 34 min 1 sec) 
Heartbeat CPU 0 instructions: 380000004 cycles: 268123856 heartbeat IPC: 1.41241 cumulative IPC: 1.41485 (Simulation time: 0 hr 34 min 55 sec) 
Heartbeat CPU 0 instructions: 390000004 cycles: 275191182 heartbeat IPC: 1.41496 cumulative IPC: 1.41485 (Simulation time: 0 hr 35 min 50 sec) 
Heartbeat CPU 0 instructions: 400000002 cycles: 282248327 heartbeat IPC: 1.417 cumulative IPC: 1.4149 (Simulation time: 0 hr 36 min 42 sec) 
Heartbeat CPU 0 instructions: 410000003 cycles: 289304139 heartbeat IPC: 1.41727 cumulative IPC: 1.41496 (Simulation time: 0 hr 37 min 32 sec) 
Heartbeat CPU 0 instructions: 420000000 cycles: 296380064 heartbeat IPC: 1.41324 cumulative IPC: 1.41492 (Simulation time: 0 hr 38 min 25 sec) 
Heartbeat CPU 0 instructions: 430000001 cycles: 303453230 heartbeat IPC: 1.41379 cumulative IPC: 1.41489 (Simulation time: 0 hr 39 min 20 sec) 
Heartbeat CPU 0 instructions: 440000002 cycles: 310548832 heartbeat IPC: 1.40932 cumulative IPC: 1.41477 (Simulation time: 0 hr 40 min 12 sec) 
Heartbeat CPU 0 instructions: 450000002 cycles: 317646077 heartbeat IPC: 1.409 cumulative IPC: 1.41464 (Simulation time: 0 hr 41 min 4 sec) 
Heartbeat CPU 0 instructions: 460000003 cycles: 324754917 heartbeat IPC: 1.4067 cumulative IPC: 1.41446 (Simulation time: 0 hr 41 min 57 sec) 
Heartbeat CPU 0 instructions: 470000003 cycles: 331885871 heartbeat IPC: 1.40234 cumulative IPC: 1.4142 (Simulation time: 0 hr 42 min 47 sec) 
Heartbeat CPU 0 instructions: 480000001 cycles: 339015678 heartbeat IPC: 1.40256 cumulative IPC: 1.41396 (Simulation time: 0 hr 43 min 38 sec) 
Heartbeat CPU 0 instructions: 490000003 cycles: 346130762 heartbeat IPC: 1.40547 cumulative IPC: 1.41378 (Simulation time: 0 hr 44 min 27 sec) 
Heartbeat CPU 0 instructions: 500000000 cycles: 353289469 heartbeat IPC: 1.3969 cumulative IPC: 1.41344 (Simulation time: 0 hr 45 min 20 sec) 
Heartbeat CPU 0 instructions: 510000000 cycles: 360444995 heartbeat IPC: 1.39752 cumulative IPC: 1.41312 (Simulation time: 0 hr 46 min 13 sec) 
Heartbeat CPU 0 instructions: 520000000 cycles: 367637527 heartbeat IPC: 1.39033 cumulative IPC: 1.41268 (Simulation time: 0 hr 47 min 5 sec) 
Heartbeat CPU 0 instructions: 530000003 cycles: 374782564 heartbeat IPC: 1.39957 cumulative IPC: 1.41243 (Simulation time: 0 hr 47 min 57 sec) 
Heartbeat CPU 0 instructions: 540000003 cycles: 381899595 heartbeat IPC: 1.40508 cumulative IPC: 1.41229 (Simulation time: 0 hr 48 min 50 sec) 
Heartbeat CPU 0 instructions: 550000002 cycles: 389030558 heartbeat IPC: 1.40234 cumulative IPC: 1.41211 (Simulation time: 0 hr 49 min 39 sec) 
Heartbeat CPU 0 instructions: 560000001 cycles: 396151735 heartbeat IPC: 1.40426 cumulative IPC: 1.41197 (Simulation time: 0 hr 50 min 30 sec) 
Heartbeat CPU 0 instructions: 570000002 cycles: 403280888 heartbeat IPC: 1.40269 cumulative IPC: 1.4118 (Simulation time: 0 hr 51 min 21 sec) 
Heartbeat CPU 0 instructions: 580000000 cycles: 410372008 heartbeat IPC: 1.41021 cumulative IPC: 1.41178 (Simulation time: 0 hr 52 min 11 sec) 
Heartbeat CPU 0 instructions: 590000001 cycles: 417529144 heartbeat IPC: 1.39721 cumulative IPC: 1.41153 (Simulation time: 0 hr 53 min 3 sec) 
Heartbeat CPU 0 instructions: 600000003 cycles: 424636227 heartbeat IPC: 1.40705 cumulative IPC: 1.41145 (Simulation time: 0 hr 53 min 54 sec) 
Heartbeat CPU 0 instructions: 610000001 cycles: 431768498 heartbeat IPC: 1.40208 cumulative IPC: 1.4113 (Simulation time: 0 hr 54 min 44 sec) 
Heartbeat CPU 0 instructions: 620000000 cycles: 438884308 heartbeat IPC: 1.40532 cumulative IPC: 1.4112 (Simulation time: 0 hr 55 min 32 sec) 
Heartbeat CPU 0 instructions: 630000002 cycles: 446037561 heartbeat IPC: 1.39797 cumulative IPC: 1.41099 (Simulation time: 0 hr 56 min 20 sec) 
Heartbeat CPU 0 instructions: 640000000 cycles: 453171176 heartbeat IPC: 1.40181 cumulative IPC: 1.41084 (Simulation time: 0 hr 57 min 9 sec) 
Heartbeat CPU 0 instructions: 650000002 cycles: 460301002 heartbeat IPC: 1.40256 cumulative IPC: 1.41071 (Simulation time: 0 hr 58 min 1 sec) 
Heartbeat CPU 0 instructions: 660000000 cycles: 467455822 heartbeat IPC: 1.39766 cumulative IPC: 1.41051 (Simulation time: 0 hr 58 min 51 sec) 
Heartbeat CPU 0 instructions: 670000004 cycles: 474635235 heartbeat IPC: 1.39287 cumulative IPC: 1.41025 (Simulation time: 0 hr 59 min 40 sec) 
Heartbeat CPU 0 instructions: 680000000 cycles: 481814931 heartbeat IPC: 1.39282 cumulative IPC: 1.40999 (Simulation time: 1 hr 0 min 29 sec) 
Heartbeat CPU 0 instructions: 690000001 cycles: 488963637 heartbeat IPC: 1.39885 cumulative IPC: 1.40982 (Simulation time: 1 hr 1 min 18 sec) 
Heartbeat CPU 0 instructions: 700000004 cycles: 496126666 heartbeat IPC: 1.39606 cumulative IPC: 1.40962 (Simulation time: 1 hr 2 min 9 sec) 
Heartbeat CPU 0 instructions: 710000001 cycles: 503339476 heartbeat IPC: 1.38642 cumulative IPC: 1.40929 (Simulation time: 1 hr 2 min 58 sec) 
Heartbeat CPU 0 instructions: 720000002 cycles: 510626632 heartbeat IPC: 1.37228 cumulative IPC: 1.40876 (Simulation time: 1 hr 3 min 44 sec) 
Heartbeat CPU 0 instructions: 730000001 cycles: 517857585 heartbeat IPC: 1.38294 cumulative IPC: 1.4084 (Simulation time: 1 hr 4 min 30 sec) 
Heartbeat CPU 0 instructions: 740000000 cycles: 525004818 heartbeat IPC: 1.39914 cumulative IPC: 1.40828 (Simulation time: 1 hr 5 min 17 sec) 
Heartbeat CPU 0 instructions: 750000003 cycles: 532179267 heartbeat IPC: 1.39384 cumulative IPC: 1.40808 (Simulation time: 1 hr 6 min 2 sec) 
Heartbeat CPU 0 instructions: 760000001 cycles: 539308249 heartbeat IPC: 1.40272 cumulative IPC: 1.40801 (Simulation time: 1 hr 6 min 46 sec) 
Heartbeat CPU 0 instructions: 770000001 cycles: 546429130 heartbeat IPC: 1.40432 cumulative IPC: 1.40796 (Simulation time: 1 hr 7 min 30 sec) 
Heartbeat CPU 0 instructions: 780000002 cycles: 553551036 heartbeat IPC: 1.40412 cumulative IPC: 1.40791 (Simulation time: 1 hr 8 min 14 sec) 
Heartbeat CPU 0 instructions: 790000001 cycles: 560633887 heartbeat IPC: 1.41186 cumulative IPC: 1.40796 (Simulation time: 1 hr 8 min 58 sec) 
Heartbeat CPU 0 instructions: 800000000 cycles: 567743310 heartbeat IPC: 1.40658 cumulative IPC: 1.40795 (Simulation time: 1 hr 9 min 45 sec) 
Heartbeat CPU 0 instructions: 810000004 cycles: 574832192 heartbeat IPC: 1.41066 cumulative IPC: 1.40798 (Simulation time: 1 hr 10 min 29 sec) 
Heartbeat CPU 0 instructions: 820000000 cycles: 581879903 heartbeat IPC: 1.4189 cumulative IPC: 1.40811 (Simulation time: 1 hr 11 min 12 sec) 
Heartbeat CPU 0 instructions: 830000001 cycles: 588932977 heartbeat IPC: 1.41782 cumulative IPC: 1.40823 (Simulation time: 1 hr 11 min 54 sec) 
Heartbeat CPU 0 instructions: 840000000 cycles: 595987502 heartbeat IPC: 1.41753 cumulative IPC: 1.40834 (Simulation time: 1 hr 12 min 36 sec) 
Heartbeat CPU 0 instructions: 850000003 cycles: 603047597 heartbeat IPC: 1.41641 cumulative IPC: 1.40843 (Simulation time: 1 hr 13 min 19 sec) 
Heartbeat CPU 0 instructions: 860000004 cycles: 610121513 heartbeat IPC: 1.41364 cumulative IPC: 1.40849 (Simulation time: 1 hr 14 min 1 sec) 
Heartbeat CPU 0 instructions: 870000002 cycles: 617175219 heartbeat IPC: 1.41769 cumulative IPC: 1.4086 (Simulation time: 1 hr 14 min 43 sec) 
Heartbeat CPU 0 instructions: 880000000 cycles: 624249299 heartbeat IPC: 1.41361 cumulative IPC: 1.40866 (Simulation time: 1 hr 15 min 26 sec) 
Heartbeat CPU 0 instructions: 890000000 cycles: 631301888 heartbeat IPC: 1.41792 cumulative IPC: 1.40876 (Simulation time: 1 hr 16 min 9 sec) 
Heartbeat CPU 0 instructions: 900000000 cycles: 638363026 heartbeat IPC: 1.4162 cumulative IPC: 1.40884 (Simulation time: 1 hr 16 min 51 sec) 
Heartbeat CPU 0 instructions: 910000001 cycles: 645447627 heartbeat IPC: 1.41151 cumulative IPC: 1.40887 (Simulation time: 1 hr 17 min 35 sec) 
Heartbeat CPU 0 instructions: 920000004 cycles: 652584864 heartbeat IPC: 1.4011 cumulative IPC: 1.40879 (Simulation time: 1 hr 18 min 17 sec) 
Heartbeat CPU 0 instructions: 930000000 cycles: 659768339 heartbeat IPC: 1.39208 cumulative IPC: 1.4086 (Simulation time: 1 hr 19 min 0 sec) 
Heartbeat CPU 0 instructions: 940000000 cycles: 666958344 heartbeat IPC: 1.39082 cumulative IPC: 1.40841 (Simulation time: 1 hr 19 min 42 sec) 
Heartbeat CPU 0 instructions: 950000000 cycles: 674125286 heartbeat IPC: 1.3953 cumulative IPC: 1.40827 (Simulation time: 1 hr 20 min 24 sec) 
Heartbeat CPU 0 instructions: 960000002 cycles: 681392549 heartbeat IPC: 1.37603 cumulative IPC: 1.40793 (Simulation time: 1 hr 21 min 7 sec) 
Heartbeat CPU 0 instructions: 970000000 cycles: 688657961 heartbeat IPC: 1.37638 cumulative IPC: 1.4076 (Simulation time: 1 hr 21 min 49 sec) 
Heartbeat CPU 0 instructions: 980000000 cycles: 695898576 heartbeat IPC: 1.3811 cumulative IPC: 1.40732 (Simulation time: 1 hr 22 min 31 sec) 
Heartbeat CPU 0 instructions: 990000003 cycles: 703107493 heartbeat IPC: 1.38717 cumulative IPC: 1.40711 (Simulation time: 1 hr 23 min 13 sec) 
Heartbeat CPU 0 instructions: 1000000001 cycles: 710290111 heartbeat IPC: 1.39225 cumulative IPC: 1.40696 (Simulation time: 1 hr 23 min 55 sec) 
Finished CPU 0 instructions: 1000000000 cycles: 710760908 cumulative IPC: 1.40694 (Simulation time: 1 hr 23 min 59 sec) 

ChampSim completed all CPUs

Region of Interest Statistics

CPU 0 cumulative IPC: 1.40694 instructions: 1000000000 cycles: 710760908
cpu0_DTLB TOTAL     ACCESS:  214471147  HIT:  213189449  MISS:    1281698
cpu0_DTLB LOAD      ACCESS:  162773255  HIT:  161495193  MISS:    1278062
cpu0_DTLB RFO       ACCESS:   51697892  HIT:   51694256  MISS:       3636
cpu0_DTLB PREFETCH  ACCESS:          0  HIT:          0  MISS:          0
cpu0_DTLB WRITEBACK ACCESS:          0  HIT:          0  MISS:          0
cpu0_DTLB TRANSLATION ACCESS:          0  HIT:          0  MISS:          0
cpu0_DTLB PREFETCH  REQUESTED:          0  ISSUED:          0  USEFUL:          0  USELESS:          0
cpu0_DTLB AVERAGE MISS LATENCY: 10.2805 cycles
cpu0_ITLB TOTAL     ACCESS:   88485890  HIT:   88485883  MISS:          7
cpu0_ITLB LOAD      ACCESS:   88485890  HIT:   88485883  MISS:          7
cpu0_ITLB RFO       ACCESS:          0  HIT:          0  MISS:          0
cpu0_ITLB PREFETCH  ACCESS:          0  HIT:          0  MISS:          0
cpu0_ITLB WRITEBACK ACCESS:          0  HIT:          0  MISS:          0
cpu0_ITLB TRANSLATION ACCESS:          0  HIT:          0  MISS:          0
cpu0_ITLB PREFETCH  REQUESTED:          0  ISSUED:          0  USEFUL:          0  USELESS:          0
cpu0_ITLB AVERAGE MISS LATENCY: 221.714 cycles
cpu0_L1I TOTAL     ACCESS:   27479898  HIT:   27479796  MISS:        102
cpu0_L1I LOAD      ACCESS:   27479898  HIT:   27479796  MISS:        102
cpu0_L1I RFO       ACCESS:          0  HIT:          0  MISS:          0
cpu0_L1I PREFETCH  ACCESS:          0  HIT:          0  MISS:          0
cpu0_L1I WRITEBACK ACCESS:          0  HIT:          0  MISS:          0
cpu0_L1I TRANSLATION ACCESS:          0  HIT:          0  MISS:          0
cpu0_L1I PREFETCH  REQUESTED:          0  ISSUED:          0  USEFUL:          0  USELESS:          0
cpu0_L1I AVERAGE MISS LATENCY: 317.451 cycles
cpu0_STLB TOTAL     ACCESS:    1281705  HIT:    1274146  MISS:       7559
cpu0_STLB LOAD      ACCESS:    1278069  HIT:    1270514  MISS:       7555
cpu0_STLB RFO       ACCESS:       3636  HIT:       3632  MISS:          4
cpu0_STLB PREFETCH  ACCESS:          0  HIT:          0  MISS:          0
cpu0_STLB WRITEBACK ACCESS:          0  HIT:          0  MISS:          0
cpu0_STLB TRANSLATION ACCESS:          0  HIT:          0  MISS:          0
cpu0_STLB PREFETCH  REQUESTED:          0  ISSUED:          0  USEFUL:          0  USELESS:          0
cpu0_STLB AVERAGE MISS LATENCY: 217.103 cycles
cpu0_L1D TOTAL     ACCESS:  512307943  HIT:  506647397  MISS:    5660546
cpu0_L1D LOAD      ACCESS:  204990299  HIT:  203999351  MISS:     990948
cpu0_L1D RFO       ACCESS:  110603635  HIT:  110596176  MISS:       7459
cpu0_L1D PREFETCH  ACCESS:  196706459  HIT:  192049924  MISS:    4656535
cpu0_L1D WRITEBACK ACCESS:          0  HIT:          0  MISS:          0
cpu0_L1D TRANSLATION ACCESS:       7550  HIT:       1946  MISS:       5604
cpu0_L1D PREFETCH  REQUESTED:  205003777  ISSUED:  196798204  USEFUL:    4462773  USELESS:     194600
cpu0_L1D AVERAGE MISS LATENCY: 20.7707 cycles
cpu0_L2C TOTAL     ACCESS:    7197248  HIT:    6928822  MISS:     268426
cpu0_L2C LOAD      ACCESS:     990220  HIT:     954657  MISS:      35563
cpu0_L2C RFO       ACCESS:       7455  HIT:       6412  MISS:       1043
cpu0_L2C PREFETCH  ACCESS:    4683838  HIT:    4452339  MISS:     231499
cpu0_L2C WRITEBACK ACCESS:    1510131  HIT:    1510016  MISS:        115
cpu0_L2C TRANSLATION ACCESS:       5604  HIT:       5398  MISS:        206
cpu0_L2C PREFETCH  REQUESTED:      26518  ISSUED:      26513  USEFUL:       3391  USELESS:       3374
cpu0_L2C AVERAGE MISS LATENCY: 167.752 cycles
LLC TOTAL     ACCESS:     287650  HIT:      85864  MISS:     201786
LLC LOAD      ACCESS:      35563  HIT:      24493  MISS:      11070
LLC RFO       ACCESS:       1043  HIT:       1007  MISS:         36
LLC PREFETCH  ACCESS:     231517  HIT:      41211  MISS:     190306
LLC WRITEBACK ACCESS:      19321  HIT:      18982  MISS:        339
LLC TRANSLATION ACCESS:        206  HIT:        171  MISS:         35
LLC PREFETCH  REQUESTED:          0  ISSUED:          0  USEFUL:          0  USELESS:          0
LLC AVERAGE MISS LATENCY: 187.272 cycles

DRAM Statistics
 CHANNEL 0
 RQ ROW_BUFFER_HIT:     124029  ROW_BUFFER_MISS:      77418
 DBUS AVG_CONGESTED_CYCLE:    3.53113
 WQ ROW_BUFFER_HIT:         21  ROW_BUFFER_MISS:       1802  FULL:          0


CPU 0 Branch Prediction Accuracy: 97.1026% MPKI: 2.80502 Average ROB Occupancy at Mispredict: 126.87
Branch type MPKI
BRANCH_DIRECT_JUMP: 2.9e-05
BRANCH_INDIRECT: 3e-06
BRANCH_CONDITIONAL: 2.80491
BRANCH_DIRECT_CALL: 4.1e-05
BRANCH_INDIRECT_CALL: 0
BRANCH_RETURN: 3.9e-05

